                   SWAT+               
             Revision 61.0            
      Soil & Water Assessment Tool    
               PC Version             
    Program reading . . . executing


  Date of Sim   2/13/2026 Time   8:48:11
 reading from pet file                   Time   8:48:11
 reading from precipitation file         Time   8:48:11
 reading from temperature file           Time   8:48:11
 reading from solar radiation file       Time   8:48:18
 reading from relative humidity file     Time   8:48:29
 reading from wind file                  Time   8:48:29
 reading from wgn file                   Time   8:48:29
 reading from wx station file            Time   8:48:29
  Original Simulation        1   1  2006 Yr    1 of   14 Time   8:48:33
  Original Simulation        1   2  2006 Yr    1 of   14 Time   8:48:33
  Original Simulation        1   3  2006 Yr    1 of   14 Time   8:48:33
  Original Simulation        1   4  2006 Yr    1 of   14 Time   8:48:34
  Original Simulation        1   5  2006 Yr    1 of   14 Time   8:48:34
  Original Simulation        1   6  2006 Yr    1 of   14 Time   8:48:34
  Original Simulation        1   7  2006 Yr    1 of   14 Time   8:48:34
  Original Simulation        1   8  2006 Yr    1 of   14 Time   8:48:34
  Original Simulation        1   9  2006 Yr    1 of   14 Time   8:48:34
  Original Simulation        1  10  2006 Yr    1 of   14 Time   8:48:35
  Original Simulation        1  11  2006 Yr    1 of   14 Time   8:48:35
  Original Simulation        1  12  2006 Yr    1 of   14 Time   8:48:35
  Original Simulation        1  13  2006 Yr    1 of   14 Time   8:48:35
  Original Simulation        1  14  2006 Yr    1 of   14 Time   8:48:35
  Original Simulation        1  15  2006 Yr    1 of   14 Time   8:48:35
  Original Simulation        1  16  2006 Yr    1 of   14 Time   8:48:35
  Original Simulation        1  17  2006 Yr    1 of   14 Time   8:48:36
  Original Simulation        1  18  2006 Yr    1 of   14 Time   8:48:36
  Original Simulation        1  19  2006 Yr    1 of   14 Time   8:48:36
  Original Simulation        1  20  2006 Yr    1 of   14 Time   8:48:36
  Original Simulation        1  21  2006 Yr    1 of   14 Time   8:48:36
  Original Simulation        1  22  2006 Yr    1 of   14 Time   8:48:36
  Original Simulation        1  23  2006 Yr    1 of   14 Time   8:48:37
  Original Simulation        1  24  2006 Yr    1 of   14 Time   8:48:37
  Original Simulation        1  25  2006 Yr    1 of   14 Time   8:48:37
  Original Simulation        1  26  2006 Yr    1 of   14 Time   8:48:37
  Original Simulation        1  27  2006 Yr    1 of   14 Time   8:48:37
  Original Simulation        1  28  2006 Yr    1 of   14 Time   8:48:38
  Original Simulation        1  29  2006 Yr    1 of   14 Time   8:48:38
  Original Simulation        1  30  2006 Yr    1 of   14 Time   8:48:38
  Original Simulation        1  31  2006 Yr    1 of   14 Time   8:48:38
  Original Simulation        2   1  2006 Yr    1 of   14 Time   8:48:38
  Original Simulation        2   2  2006 Yr    1 of   14 Time   8:48:39
  Original Simulation        2   3  2006 Yr    1 of   14 Time   8:48:39
  Original Simulation        2   4  2006 Yr    1 of   14 Time   8:48:39
  Original Simulation        2   5  2006 Yr    1 of   14 Time   8:48:39
  Original Simulation        2   6  2006 Yr    1 of   14 Time   8:48:39
  Original Simulation        2   7  2006 Yr    1 of   14 Time   8:48:39
  Original Simulation        2   8  2006 Yr    1 of   14 Time   8:48:40
  Original Simulation        2   9  2006 Yr    1 of   14 Time   8:48:40
  Original Simulation        2  10  2006 Yr    1 of   14 Time   8:48:40
  Original Simulation        2  11  2006 Yr    1 of   14 Time   8:48:40
  Original Simulation        2  12  2006 Yr    1 of   14 Time   8:48:40
  Original Simulation        2  13  2006 Yr    1 of   14 Time   8:48:40
  Original Simulation        2  14  2006 Yr    1 of   14 Time   8:48:41
  Original Simulation        2  15  2006 Yr    1 of   14 Time   8:48:41
  Original Simulation        2  16  2006 Yr    1 of   14 Time   8:48:41
  Original Simulation        2  17  2006 Yr    1 of   14 Time   8:48:41
  Original Simulation        2  18  2006 Yr    1 of   14 Time   8:48:41
  Original Simulation        2  19  2006 Yr    1 of   14 Time   8:48:41
  Original Simulation        2  20  2006 Yr    1 of   14 Time   8:48:42
  Original Simulation        2  21  2006 Yr    1 of   14 Time   8:48:42
  Original Simulation        2  22  2006 Yr    1 of   14 Time   8:48:42
  Original Simulation        2  23  2006 Yr    1 of   14 Time   8:48:42
  Original Simulation        2  24  2006 Yr    1 of   14 Time   8:48:42
  Original Simulation        2  25  2006 Yr    1 of   14 Time   8:48:43
  Original Simulation        2  26  2006 Yr    1 of   14 Time   8:48:43
  Original Simulation        2  27  2006 Yr    1 of   14 Time   8:48:43
  Original Simulation        2  28  2006 Yr    1 of   14 Time   8:48:43
  Original Simulation        3   1  2006 Yr    1 of   14 Time   8:48:43
  Original Simulation        3   2  2006 Yr    1 of   14 Time   8:48:43
  Original Simulation        3   3  2006 Yr    1 of   14 Time   8:48:44
  Original Simulation        3   4  2006 Yr    1 of   14 Time   8:48:44
  Original Simulation        3   5  2006 Yr    1 of   14 Time   8:48:44
  Original Simulation        3   6  2006 Yr    1 of   14 Time   8:48:44
  Original Simulation        3   7  2006 Yr    1 of   14 Time   8:48:44
  Original Simulation        3   8  2006 Yr    1 of   14 Time   8:48:44
  Original Simulation        3   9  2006 Yr    1 of   14 Time   8:48:45
  Original Simulation        3  10  2006 Yr    1 of   14 Time   8:48:45
  Original Simulation        3  11  2006 Yr    1 of   14 Time   8:48:45
  Original Simulation        3  12  2006 Yr    1 of   14 Time   8:48:45
  Original Simulation        3  13  2006 Yr    1 of   14 Time   8:48:45
  Original Simulation        3  14  2006 Yr    1 of   14 Time   8:48:45
  Original Simulation        3  15  2006 Yr    1 of   14 Time   8:48:46
  Original Simulation        3  16  2006 Yr    1 of   14 Time   8:48:46
  Original Simulation        3  17  2006 Yr    1 of   14 Time   8:48:46
  Original Simulation        3  18  2006 Yr    1 of   14 Time   8:48:46
  Original Simulation        3  19  2006 Yr    1 of   14 Time   8:48:46
  Original Simulation        3  20  2006 Yr    1 of   14 Time   8:48:46
  Original Simulation        3  21  2006 Yr    1 of   14 Time   8:48:47
  Original Simulation        3  22  2006 Yr    1 of   14 Time   8:48:47
  Original Simulation        3  23  2006 Yr    1 of   14 Time   8:48:47
  Original Simulation        3  24  2006 Yr    1 of   14 Time   8:48:47
  Original Simulation        3  25  2006 Yr    1 of   14 Time   8:48:47
  Original Simulation        3  26  2006 Yr    1 of   14 Time   8:48:47
  Original Simulation        3  27  2006 Yr    1 of   14 Time   8:48:48
  Original Simulation        3  28  2006 Yr    1 of   14 Time   8:48:48
  Original Simulation        3  29  2006 Yr    1 of   14 Time   8:48:48
  Original Simulation        3  30  2006 Yr    1 of   14 Time   8:48:48
  Original Simulation        3  31  2006 Yr    1 of   14 Time   8:48:48
  Original Simulation        4   1  2006 Yr    1 of   14 Time   8:48:49
  Original Simulation        4   2  2006 Yr    1 of   14 Time   8:48:49
  Original Simulation        4   3  2006 Yr    1 of   14 Time   8:48:49
  Original Simulation        4   4  2006 Yr    1 of   14 Time   8:48:49
  Original Simulation        4   5  2006 Yr    1 of   14 Time   8:48:49
  Original Simulation        4   6  2006 Yr    1 of   14 Time   8:48:50
  Original Simulation        4   7  2006 Yr    1 of   14 Time   8:48:50
  Original Simulation        4   8  2006 Yr    1 of   14 Time   8:48:50
  Original Simulation        4   9  2006 Yr    1 of   14 Time   8:48:50
  Original Simulation        4  10  2006 Yr    1 of   14 Time   8:48:50
  Original Simulation        4  11  2006 Yr    1 of   14 Time   8:48:50
  Original Simulation        4  12  2006 Yr    1 of   14 Time   8:48:51
  Original Simulation        4  13  2006 Yr    1 of   14 Time   8:48:51
  Original Simulation        4  14  2006 Yr    1 of   14 Time   8:48:51
  Original Simulation        4  15  2006 Yr    1 of   14 Time   8:48:51
  Original Simulation        4  16  2006 Yr    1 of   14 Time   8:48:51
  Original Simulation        4  17  2006 Yr    1 of   14 Time   8:48:51
  Original Simulation        4  18  2006 Yr    1 of   14 Time   8:48:52
  Original Simulation        4  19  2006 Yr    1 of   14 Time   8:48:52
  Original Simulation        4  20  2006 Yr    1 of   14 Time   8:48:52
  Original Simulation        4  21  2006 Yr    1 of   14 Time   8:48:52
  Original Simulation        4  22  2006 Yr    1 of   14 Time   8:48:52
  Original Simulation        4  23  2006 Yr    1 of   14 Time   8:48:52
  Original Simulation        4  24  2006 Yr    1 of   14 Time   8:48:53
  Original Simulation        4  25  2006 Yr    1 of   14 Time   8:48:53
  Original Simulation        4  26  2006 Yr    1 of   14 Time   8:48:53
  Original Simulation        4  27  2006 Yr    1 of   14 Time   8:48:53
  Original Simulation        4  28  2006 Yr    1 of   14 Time   8:48:53
  Original Simulation        4  29  2006 Yr    1 of   14 Time   8:48:53
  Original Simulation        4  30  2006 Yr    1 of   14 Time   8:48:54
  Original Simulation        5   1  2006 Yr    1 of   14 Time   8:48:54
  Original Simulation        5   2  2006 Yr    1 of   14 Time   8:48:54
  Original Simulation        5   3  2006 Yr    1 of   14 Time   8:48:54
  Original Simulation        5   4  2006 Yr    1 of   14 Time   8:48:54
  Original Simulation        5   5  2006 Yr    1 of   14 Time   8:48:55
  Original Simulation        5   6  2006 Yr    1 of   14 Time   8:48:55
  Original Simulation        5   7  2006 Yr    1 of   14 Time   8:48:55
  Original Simulation        5   8  2006 Yr    1 of   14 Time   8:48:55
  Original Simulation        5   9  2006 Yr    1 of   14 Time   8:48:55
  Original Simulation        5  10  2006 Yr    1 of   14 Time   8:48:55
  Original Simulation        5  11  2006 Yr    1 of   14 Time   8:48:56
  Original Simulation        5  12  2006 Yr    1 of   14 Time   8:48:56
  Original Simulation        5  13  2006 Yr    1 of   14 Time   8:48:56
  Original Simulation        5  14  2006 Yr    1 of   14 Time   8:48:56
  Original Simulation        5  15  2006 Yr    1 of   14 Time   8:48:56
  Original Simulation        5  16  2006 Yr    1 of   14 Time   8:48:56
  Original Simulation        5  17  2006 Yr    1 of   14 Time   8:48:57
  Original Simulation        5  18  2006 Yr    1 of   14 Time   8:48:57
  Original Simulation        5  19  2006 Yr    1 of   14 Time   8:48:57
  Original Simulation        5  20  2006 Yr    1 of   14 Time   8:48:57
  Original Simulation        5  21  2006 Yr    1 of   14 Time   8:48:57
  Original Simulation        5  22  2006 Yr    1 of   14 Time   8:48:57
  Original Simulation        5  23  2006 Yr    1 of   14 Time   8:48:58
  Original Simulation        5  24  2006 Yr    1 of   14 Time   8:48:58
  Original Simulation        5  25  2006 Yr    1 of   14 Time   8:48:58
  Original Simulation        5  26  2006 Yr    1 of   14 Time   8:48:58
  Original Simulation        5  27  2006 Yr    1 of   14 Time   8:48:58
  Original Simulation        5  28  2006 Yr    1 of   14 Time   8:48:58
  Original Simulation        5  29  2006 Yr    1 of   14 Time   8:48:59
  Original Simulation        5  30  2006 Yr    1 of   14 Time   8:48:59
  Original Simulation        5  31  2006 Yr    1 of   14 Time   8:48:59
  Original Simulation        6   1  2006 Yr    1 of   14 Time   8:48:59
  Original Simulation        6   2  2006 Yr    1 of   14 Time   8:48:59
  Original Simulation        6   3  2006 Yr    1 of   14 Time   8:48:59
  Original Simulation        6   4  2006 Yr    1 of   14 Time   8:49: 0
  Original Simulation        6   5  2006 Yr    1 of   14 Time   8:49: 0
  Original Simulation        6   6  2006 Yr    1 of   14 Time   8:49: 0
  Original Simulation        6   7  2006 Yr    1 of   14 Time   8:49: 0
  Original Simulation        6   8  2006 Yr    1 of   14 Time   8:49: 0
  Original Simulation        6   9  2006 Yr    1 of   14 Time   8:49: 0
  Original Simulation        6  10  2006 Yr    1 of   14 Time   8:49: 1
  Original Simulation        6  11  2006 Yr    1 of   14 Time   8:49: 1
  Original Simulation        6  12  2006 Yr    1 of   14 Time   8:49: 1
  Original Simulation        6  13  2006 Yr    1 of   14 Time   8:49: 1
  Original Simulation        6  14  2006 Yr    1 of   14 Time   8:49: 1
  Original Simulation        6  15  2006 Yr    1 of   14 Time   8:49: 1
  Original Simulation        6  16  2006 Yr    1 of   14 Time   8:49: 2
  Original Simulation        6  17  2006 Yr    1 of   14 Time   8:49: 2
  Original Simulation        6  18  2006 Yr    1 of   14 Time   8:49: 2
  Original Simulation        6  19  2006 Yr    1 of   14 Time   8:49: 2
  Original Simulation        6  20  2006 Yr    1 of   14 Time   8:49: 2
  Original Simulation        6  21  2006 Yr    1 of   14 Time   8:49: 2
  Original Simulation        6  22  2006 Yr    1 of   14 Time   8:49: 3
  Original Simulation        6  23  2006 Yr    1 of   14 Time   8:49: 3
  Original Simulation        6  24  2006 Yr    1 of   14 Time   8:49: 3
  Original Simulation        6  25  2006 Yr    1 of   14 Time   8:49: 3
  Original Simulation        6  26  2006 Yr    1 of   14 Time   8:49: 3
  Original Simulation        6  27  2006 Yr    1 of   14 Time   8:49: 3
  Original Simulation        6  28  2006 Yr    1 of   14 Time   8:49: 4
  Original Simulation        6  29  2006 Yr    1 of   14 Time   8:49: 4
  Original Simulation        6  30  2006 Yr    1 of   14 Time   8:49: 4
  Original Simulation        7   1  2006 Yr    1 of   14 Time   8:49: 4
  Original Simulation        7   2  2006 Yr    1 of   14 Time   8:49: 4
  Original Simulation        7   3  2006 Yr    1 of   14 Time   8:49: 4
  Original Simulation        7   4  2006 Yr    1 of   14 Time   8:49: 5
  Original Simulation        7   5  2006 Yr    1 of   14 Time   8:49: 5
  Original Simulation        7   6  2006 Yr    1 of   14 Time   8:49: 5
  Original Simulation        7   7  2006 Yr    1 of   14 Time   8:49: 5
  Original Simulation        7   8  2006 Yr    1 of   14 Time   8:49: 5
  Original Simulation        7   9  2006 Yr    1 of   14 Time   8:49: 6
  Original Simulation        7  10  2006 Yr    1 of   14 Time   8:49: 6
  Original Simulation        7  11  2006 Yr    1 of   14 Time   8:49: 6
  Original Simulation        7  12  2006 Yr    1 of   14 Time   8:49: 6
  Original Simulation        7  13  2006 Yr    1 of   14 Time   8:49: 6
  Original Simulation        7  14  2006 Yr    1 of   14 Time   8:49: 6
  Original Simulation        7  15  2006 Yr    1 of   14 Time   8:49: 7
  Original Simulation        7  16  2006 Yr    1 of   14 Time   8:49: 7
  Original Simulation        7  17  2006 Yr    1 of   14 Time   8:49: 7
  Original Simulation        7  18  2006 Yr    1 of   14 Time   8:49: 7
  Original Simulation        7  19  2006 Yr    1 of   14 Time   8:49: 7
  Original Simulation        7  20  2006 Yr    1 of   14 Time   8:49: 8
  Original Simulation        7  21  2006 Yr    1 of   14 Time   8:49: 8
  Original Simulation        7  22  2006 Yr    1 of   14 Time   8:49: 8
  Original Simulation        7  23  2006 Yr    1 of   14 Time   8:49: 8
  Original Simulation        7  24  2006 Yr    1 of   14 Time   8:49: 8
  Original Simulation        7  25  2006 Yr    1 of   14 Time   8:49: 8
  Original Simulation        7  26  2006 Yr    1 of   14 Time   8:49: 9
  Original Simulation        7  27  2006 Yr    1 of   14 Time   8:49: 9
  Original Simulation        7  28  2006 Yr    1 of   14 Time   8:49: 9
  Original Simulation        7  29  2006 Yr    1 of   14 Time   8:49: 9
  Original Simulation        7  30  2006 Yr    1 of   14 Time   8:49: 9
  Original Simulation        7  31  2006 Yr    1 of   14 Time   8:49: 9
  Original Simulation        8   1  2006 Yr    1 of   14 Time   8:49:10
  Original Simulation        8   2  2006 Yr    1 of   14 Time   8:49:10
  Original Simulation        8   3  2006 Yr    1 of   14 Time   8:49:10
  Original Simulation        8   4  2006 Yr    1 of   14 Time   8:49:10
  Original Simulation        8   5  2006 Yr    1 of   14 Time   8:49:10
  Original Simulation        8   6  2006 Yr    1 of   14 Time   8:49:11
  Original Simulation        8   7  2006 Yr    1 of   14 Time   8:49:11
  Original Simulation        8   8  2006 Yr    1 of   14 Time   8:49:11
  Original Simulation        8   9  2006 Yr    1 of   14 Time   8:49:11
  Original Simulation        8  10  2006 Yr    1 of   14 Time   8:49:11
  Original Simulation        8  11  2006 Yr    1 of   14 Time   8:49:11
  Original Simulation        8  12  2006 Yr    1 of   14 Time   8:49:12
  Original Simulation        8  13  2006 Yr    1 of   14 Time   8:49:12
  Original Simulation        8  14  2006 Yr    1 of   14 Time   8:49:12
  Original Simulation        8  15  2006 Yr    1 of   14 Time   8:49:12
  Original Simulation        8  16  2006 Yr    1 of   14 Time   8:49:12
  Original Simulation        8  17  2006 Yr    1 of   14 Time   8:49:12
  Original Simulation        8  18  2006 Yr    1 of   14 Time   8:49:13
  Original Simulation        8  19  2006 Yr    1 of   14 Time   8:49:13
  Original Simulation        8  20  2006 Yr    1 of   14 Time   8:49:13
  Original Simulation        8  21  2006 Yr    1 of   14 Time   8:49:13
  Original Simulation        8  22  2006 Yr    1 of   14 Time   8:49:13
  Original Simulation        8  23  2006 Yr    1 of   14 Time   8:49:13
  Original Simulation        8  24  2006 Yr    1 of   14 Time   8:49:14
  Original Simulation        8  25  2006 Yr    1 of   14 Time   8:49:14
  Original Simulation        8  26  2006 Yr    1 of   14 Time   8:49:14
  Original Simulation        8  27  2006 Yr    1 of   14 Time   8:49:14
  Original Simulation        8  28  2006 Yr    1 of   14 Time   8:49:14
  Original Simulation        8  29  2006 Yr    1 of   14 Time   8:49:15
  Original Simulation        8  30  2006 Yr    1 of   14 Time   8:49:15
  Original Simulation        8  31  2006 Yr    1 of   14 Time   8:49:15
  Original Simulation        9   1  2006 Yr    1 of   14 Time   8:49:15
  Original Simulation        9   2  2006 Yr    1 of   14 Time   8:49:15
  Original Simulation        9   3  2006 Yr    1 of   14 Time   8:49:16
  Original Simulation        9   4  2006 Yr    1 of   14 Time   8:49:16
  Original Simulation        9   5  2006 Yr    1 of   14 Time   8:49:16
  Original Simulation        9   6  2006 Yr    1 of   14 Time   8:49:16
  Original Simulation        9   7  2006 Yr    1 of   14 Time   8:49:16
  Original Simulation        9   8  2006 Yr    1 of   14 Time   8:49:17
  Original Simulation        9   9  2006 Yr    1 of   14 Time   8:49:17
  Original Simulation        9  10  2006 Yr    1 of   14 Time   8:49:17
  Original Simulation        9  11  2006 Yr    1 of   14 Time   8:49:17
  Original Simulation        9  12  2006 Yr    1 of   14 Time   8:49:17
  Original Simulation        9  13  2006 Yr    1 of   14 Time   8:49:17
  Original Simulation        9  14  2006 Yr    1 of   14 Time   8:49:18
  Original Simulation        9  15  2006 Yr    1 of   14 Time   8:49:18
  Original Simulation        9  16  2006 Yr    1 of   14 Time   8:49:18
  Original Simulation        9  17  2006 Yr    1 of   14 Time   8:49:18
  Original Simulation        9  18  2006 Yr    1 of   14 Time   8:49:18
  Original Simulation        9  19  2006 Yr    1 of   14 Time   8:49:19
  Original Simulation        9  20  2006 Yr    1 of   14 Time   8:49:19
  Original Simulation        9  21  2006 Yr    1 of   14 Time   8:49:19
  Original Simulation        9  22  2006 Yr    1 of   14 Time   8:49:19
  Original Simulation        9  23  2006 Yr    1 of   14 Time   8:49:19
  Original Simulation        9  24  2006 Yr    1 of   14 Time   8:49:19
  Original Simulation        9  25  2006 Yr    1 of   14 Time   8:49:20
  Original Simulation        9  26  2006 Yr    1 of   14 Time   8:49:20
  Original Simulation        9  27  2006 Yr    1 of   14 Time   8:49:20
  Original Simulation        9  28  2006 Yr    1 of   14 Time   8:49:20
  Original Simulation        9  29  2006 Yr    1 of   14 Time   8:49:20
  Original Simulation        9  30  2006 Yr    1 of   14 Time   8:49:20
  Original Simulation       10   1  2006 Yr    1 of   14 Time   8:49:21
  Original Simulation       10   2  2006 Yr    1 of   14 Time   8:49:21
  Original Simulation       10   3  2006 Yr    1 of   14 Time   8:49:21
  Original Simulation       10   4  2006 Yr    1 of   14 Time   8:49:21
  Original Simulation       10   5  2006 Yr    1 of   14 Time   8:49:21
  Original Simulation       10   6  2006 Yr    1 of   14 Time   8:49:22
  Original Simulation       10   7  2006 Yr    1 of   14 Time   8:49:22
  Original Simulation       10   8  2006 Yr    1 of   14 Time   8:49:22
  Original Simulation       10   9  2006 Yr    1 of   14 Time   8:49:22
  Original Simulation       10  10  2006 Yr    1 of   14 Time   8:49:22
  Original Simulation       10  11  2006 Yr    1 of   14 Time   8:49:22
  Original Simulation       10  12  2006 Yr    1 of   14 Time   8:49:23
  Original Simulation       10  13  2006 Yr    1 of   14 Time   8:49:23
  Original Simulation       10  14  2006 Yr    1 of   14 Time   8:49:23
  Original Simulation       10  15  2006 Yr    1 of   14 Time   8:49:23
  Original Simulation       10  16  2006 Yr    1 of   14 Time   8:49:23
  Original Simulation       10  17  2006 Yr    1 of   14 Time   8:49:24
  Original Simulation       10  18  2006 Yr    1 of   14 Time   8:49:24
  Original Simulation       10  19  2006 Yr    1 of   14 Time   8:49:24
  Original Simulation       10  20  2006 Yr    1 of   14 Time   8:49:24
  Original Simulation       10  21  2006 Yr    1 of   14 Time   8:49:24
  Original Simulation       10  22  2006 Yr    1 of   14 Time   8:49:24
  Original Simulation       10  23  2006 Yr    1 of   14 Time   8:49:25
  Original Simulation       10  24  2006 Yr    1 of   14 Time   8:49:25
  Original Simulation       10  25  2006 Yr    1 of   14 Time   8:49:25
  Original Simulation       10  26  2006 Yr    1 of   14 Time   8:49:25
  Original Simulation       10  27  2006 Yr    1 of   14 Time   8:49:25
  Original Simulation       10  28  2006 Yr    1 of   14 Time   8:49:26
  Original Simulation       10  29  2006 Yr    1 of   14 Time   8:49:26
  Original Simulation       10  30  2006 Yr    1 of   14 Time   8:49:26
  Original Simulation       10  31  2006 Yr    1 of   14 Time   8:49:26
  Original Simulation       11   1  2006 Yr    1 of   14 Time   8:49:27
  Original Simulation       11   2  2006 Yr    1 of   14 Time   8:49:27
  Original Simulation       11   3  2006 Yr    1 of   14 Time   8:49:27
  Original Simulation       11   4  2006 Yr    1 of   14 Time   8:49:27
  Original Simulation       11   5  2006 Yr    1 of   14 Time   8:49:27
  Original Simulation       11   6  2006 Yr    1 of   14 Time   8:49:27
  Original Simulation       11   7  2006 Yr    1 of   14 Time   8:49:28
  Original Simulation       11   8  2006 Yr    1 of   14 Time   8:49:28
  Original Simulation       11   9  2006 Yr    1 of   14 Time   8:49:28
  Original Simulation       11  10  2006 Yr    1 of   14 Time   8:49:28
  Original Simulation       11  11  2006 Yr    1 of   14 Time   8:49:28
  Original Simulation       11  12  2006 Yr    1 of   14 Time   8:49:28
  Original Simulation       11  13  2006 Yr    1 of   14 Time   8:49:29
  Original Simulation       11  14  2006 Yr    1 of   14 Time   8:49:29
  Original Simulation       11  15  2006 Yr    1 of   14 Time   8:49:29
  Original Simulation       11  16  2006 Yr    1 of   14 Time   8:49:29
  Original Simulation       11  17  2006 Yr    1 of   14 Time   8:49:29
  Original Simulation       11  18  2006 Yr    1 of   14 Time   8:49:29
  Original Simulation       11  19  2006 Yr    1 of   14 Time   8:49:30
  Original Simulation       11  20  2006 Yr    1 of   14 Time   8:49:30
  Original Simulation       11  21  2006 Yr    1 of   14 Time   8:49:30
  Original Simulation       11  22  2006 Yr    1 of   14 Time   8:49:30
  Original Simulation       11  23  2006 Yr    1 of   14 Time   8:49:30
  Original Simulation       11  24  2006 Yr    1 of   14 Time   8:49:30
  Original Simulation       11  25  2006 Yr    1 of   14 Time   8:49:30
  Original Simulation       11  26  2006 Yr    1 of   14 Time   8:49:31
  Original Simulation       11  27  2006 Yr    1 of   14 Time   8:49:31
  Original Simulation       11  28  2006 Yr    1 of   14 Time   8:49:31
  Original Simulation       11  29  2006 Yr    1 of   14 Time   8:49:31
  Original Simulation       11  30  2006 Yr    1 of   14 Time   8:49:31
  Original Simulation       12   1  2006 Yr    1 of   14 Time   8:49:32
  Original Simulation       12   2  2006 Yr    1 of   14 Time   8:49:32
  Original Simulation       12   3  2006 Yr    1 of   14 Time   8:49:32
  Original Simulation       12   4  2006 Yr    1 of   14 Time   8:49:32
  Original Simulation       12   5  2006 Yr    1 of   14 Time   8:49:32
  Original Simulation       12   6  2006 Yr    1 of   14 Time   8:49:33
  Original Simulation       12   7  2006 Yr    1 of   14 Time   8:49:33
  Original Simulation       12   8  2006 Yr    1 of   14 Time   8:49:33
  Original Simulation       12   9  2006 Yr    1 of   14 Time   8:49:33
  Original Simulation       12  10  2006 Yr    1 of   14 Time   8:49:33
  Original Simulation       12  11  2006 Yr    1 of   14 Time   8:49:34
  Original Simulation       12  12  2006 Yr    1 of   14 Time   8:49:34
  Original Simulation       12  13  2006 Yr    1 of   14 Time   8:49:34
  Original Simulation       12  14  2006 Yr    1 of   14 Time   8:49:34
  Original Simulation       12  15  2006 Yr    1 of   14 Time   8:49:34
  Original Simulation       12  16  2006 Yr    1 of   14 Time   8:49:34
  Original Simulation       12  17  2006 Yr    1 of   14 Time   8:49:35
  Original Simulation       12  18  2006 Yr    1 of   14 Time   8:49:35
  Original Simulation       12  19  2006 Yr    1 of   14 Time   8:49:35
  Original Simulation       12  20  2006 Yr    1 of   14 Time   8:49:35
  Original Simulation       12  21  2006 Yr    1 of   14 Time   8:49:35
  Original Simulation       12  22  2006 Yr    1 of   14 Time   8:49:35
  Original Simulation       12  23  2006 Yr    1 of   14 Time   8:49:36
  Original Simulation       12  24  2006 Yr    1 of   14 Time   8:49:36
  Original Simulation       12  25  2006 Yr    1 of   14 Time   8:49:36
  Original Simulation       12  26  2006 Yr    1 of   14 Time   8:49:36
  Original Simulation       12  27  2006 Yr    1 of   14 Time   8:49:36
  Original Simulation       12  28  2006 Yr    1 of   14 Time   8:49:36
  Original Simulation       12  29  2006 Yr    1 of   14 Time   8:49:37
  Original Simulation       12  30  2006 Yr    1 of   14 Time   8:49:37
  Original Simulation       12  31  2006 Yr    1 of   14 Time   8:49:37
  Original Simulation        1   1  2007 Yr    2 of   14 Time   8:49:37
  Original Simulation        1   2  2007 Yr    2 of   14 Time   8:49:37
  Original Simulation        1   3  2007 Yr    2 of   14 Time   8:49:38
  Original Simulation        1   4  2007 Yr    2 of   14 Time   8:49:38
  Original Simulation        1   5  2007 Yr    2 of   14 Time   8:49:38
  Original Simulation        1   6  2007 Yr    2 of   14 Time   8:49:38
  Original Simulation        1   7  2007 Yr    2 of   14 Time   8:49:38
  Original Simulation        1   8  2007 Yr    2 of   14 Time   8:49:38
  Original Simulation        1   9  2007 Yr    2 of   14 Time   8:49:39
  Original Simulation        1  10  2007 Yr    2 of   14 Time   8:49:39
  Original Simulation        1  11  2007 Yr    2 of   14 Time   8:49:39
  Original Simulation        1  12  2007 Yr    2 of   14 Time   8:49:39
  Original Simulation        1  13  2007 Yr    2 of   14 Time   8:49:39
  Original Simulation        1  14  2007 Yr    2 of   14 Time   8:49:39
  Original Simulation        1  15  2007 Yr    2 of   14 Time   8:49:40
  Original Simulation        1  16  2007 Yr    2 of   14 Time   8:49:40
  Original Simulation        1  17  2007 Yr    2 of   14 Time   8:49:40
  Original Simulation        1  18  2007 Yr    2 of   14 Time   8:49:40
  Original Simulation        1  19  2007 Yr    2 of   14 Time   8:49:40
  Original Simulation        1  20  2007 Yr    2 of   14 Time   8:49:41
  Original Simulation        1  21  2007 Yr    2 of   14 Time   8:49:41
  Original Simulation        1  22  2007 Yr    2 of   14 Time   8:49:41
  Original Simulation        1  23  2007 Yr    2 of   14 Time   8:49:41
  Original Simulation        1  24  2007 Yr    2 of   14 Time   8:49:41
  Original Simulation        1  25  2007 Yr    2 of   14 Time   8:49:41
  Original Simulation        1  26  2007 Yr    2 of   14 Time   8:49:42
  Original Simulation        1  27  2007 Yr    2 of   14 Time   8:49:42
  Original Simulation        1  28  2007 Yr    2 of   14 Time   8:49:42
  Original Simulation        1  29  2007 Yr    2 of   14 Time   8:49:42
  Original Simulation        1  30  2007 Yr    2 of   14 Time   8:49:42
  Original Simulation        1  31  2007 Yr    2 of   14 Time   8:49:42
  Original Simulation        2   1  2007 Yr    2 of   14 Time   8:49:43
  Original Simulation        2   2  2007 Yr    2 of   14 Time   8:49:43
  Original Simulation        2   3  2007 Yr    2 of   14 Time   8:49:43
  Original Simulation        2   4  2007 Yr    2 of   14 Time   8:49:43
  Original Simulation        2   5  2007 Yr    2 of   14 Time   8:49:44
  Original Simulation        2   6  2007 Yr    2 of   14 Time   8:49:44
  Original Simulation        2   7  2007 Yr    2 of   14 Time   8:49:44
  Original Simulation        2   8  2007 Yr    2 of   14 Time   8:49:44
  Original Simulation        2   9  2007 Yr    2 of   14 Time   8:49:44
  Original Simulation        2  10  2007 Yr    2 of   14 Time   8:49:45
  Original Simulation        2  11  2007 Yr    2 of   14 Time   8:49:45
  Original Simulation        2  12  2007 Yr    2 of   14 Time   8:49:45
  Original Simulation        2  13  2007 Yr    2 of   14 Time   8:49:45
  Original Simulation        2  14  2007 Yr    2 of   14 Time   8:49:45
  Original Simulation        2  15  2007 Yr    2 of   14 Time   8:49:45
  Original Simulation        2  16  2007 Yr    2 of   14 Time   8:49:46
  Original Simulation        2  17  2007 Yr    2 of   14 Time   8:49:46
  Original Simulation        2  18  2007 Yr    2 of   14 Time   8:49:46
  Original Simulation        2  19  2007 Yr    2 of   14 Time   8:49:46
  Original Simulation        2  20  2007 Yr    2 of   14 Time   8:49:46
  Original Simulation        2  21  2007 Yr    2 of   14 Time   8:49:47
  Original Simulation        2  22  2007 Yr    2 of   14 Time   8:49:47
  Original Simulation        2  23  2007 Yr    2 of   14 Time   8:49:47
  Original Simulation        2  24  2007 Yr    2 of   14 Time   8:49:47
  Original Simulation        2  25  2007 Yr    2 of   14 Time   8:49:47
  Original Simulation        2  26  2007 Yr    2 of   14 Time   8:49:47
  Original Simulation        2  27  2007 Yr    2 of   14 Time   8:49:48
  Original Simulation        2  28  2007 Yr    2 of   14 Time   8:49:48
  Original Simulation        3   1  2007 Yr    2 of   14 Time   8:49:48
  Original Simulation        3   2  2007 Yr    2 of   14 Time   8:49:48
  Original Simulation        3   3  2007 Yr    2 of   14 Time   8:49:48
  Original Simulation        3   4  2007 Yr    2 of   14 Time   8:49:49
  Original Simulation        3   5  2007 Yr    2 of   14 Time   8:49:49
  Original Simulation        3   6  2007 Yr    2 of   14 Time   8:49:49
  Original Simulation        3   7  2007 Yr    2 of   14 Time   8:49:49
  Original Simulation        3   8  2007 Yr    2 of   14 Time   8:49:49
  Original Simulation        3   9  2007 Yr    2 of   14 Time   8:49:50
  Original Simulation        3  10  2007 Yr    2 of   14 Time   8:49:50
  Original Simulation        3  11  2007 Yr    2 of   14 Time   8:49:50
  Original Simulation        3  12  2007 Yr    2 of   14 Time   8:49:50
  Original Simulation        3  13  2007 Yr    2 of   14 Time   8:49:50
  Original Simulation        3  14  2007 Yr    2 of   14 Time   8:49:51
  Original Simulation        3  15  2007 Yr    2 of   14 Time   8:49:51
  Original Simulation        3  16  2007 Yr    2 of   14 Time   8:49:51
  Original Simulation        3  17  2007 Yr    2 of   14 Time   8:49:51
  Original Simulation        3  18  2007 Yr    2 of   14 Time   8:49:51
  Original Simulation        3  19  2007 Yr    2 of   14 Time   8:49:52
  Original Simulation        3  20  2007 Yr    2 of   14 Time   8:49:52
  Original Simulation        3  21  2007 Yr    2 of   14 Time   8:49:52
  Original Simulation        3  22  2007 Yr    2 of   14 Time   8:49:52
  Original Simulation        3  23  2007 Yr    2 of   14 Time   8:49:52
  Original Simulation        3  24  2007 Yr    2 of   14 Time   8:49:52
  Original Simulation        3  25  2007 Yr    2 of   14 Time   8:49:53
  Original Simulation        3  26  2007 Yr    2 of   14 Time   8:49:53
  Original Simulation        3  27  2007 Yr    2 of   14 Time   8:49:53
  Original Simulation        3  28  2007 Yr    2 of   14 Time   8:49:53
  Original Simulation        3  29  2007 Yr    2 of   14 Time   8:49:53
  Original Simulation        3  30  2007 Yr    2 of   14 Time   8:49:54
  Original Simulation        3  31  2007 Yr    2 of   14 Time   8:49:54
  Original Simulation        4   1  2007 Yr    2 of   14 Time   8:49:54
  Original Simulation        4   2  2007 Yr    2 of   14 Time   8:49:54
  Original Simulation        4   3  2007 Yr    2 of   14 Time   8:49:54
  Original Simulation        4   4  2007 Yr    2 of   14 Time   8:49:55
  Original Simulation        4   5  2007 Yr    2 of   14 Time   8:49:55
  Original Simulation        4   6  2007 Yr    2 of   14 Time   8:49:55
  Original Simulation        4   7  2007 Yr    2 of   14 Time   8:49:55
  Original Simulation        4   8  2007 Yr    2 of   14 Time   8:49:55
  Original Simulation        4   9  2007 Yr    2 of   14 Time   8:49:56
  Original Simulation        4  10  2007 Yr    2 of   14 Time   8:49:56
  Original Simulation        4  11  2007 Yr    2 of   14 Time   8:49:56
  Original Simulation        4  12  2007 Yr    2 of   14 Time   8:49:56
  Original Simulation        4  13  2007 Yr    2 of   14 Time   8:49:56
  Original Simulation        4  14  2007 Yr    2 of   14 Time   8:49:56
  Original Simulation        4  15  2007 Yr    2 of   14 Time   8:49:57
  Original Simulation        4  16  2007 Yr    2 of   14 Time   8:49:57
  Original Simulation        4  17  2007 Yr    2 of   14 Time   8:49:57
  Original Simulation        4  18  2007 Yr    2 of   14 Time   8:49:57
  Original Simulation        4  19  2007 Yr    2 of   14 Time   8:49:57
  Original Simulation        4  20  2007 Yr    2 of   14 Time   8:49:57
  Original Simulation        4  21  2007 Yr    2 of   14 Time   8:49:58
  Original Simulation        4  22  2007 Yr    2 of   14 Time   8:49:58
  Original Simulation        4  23  2007 Yr    2 of   14 Time   8:49:58
  Original Simulation        4  24  2007 Yr    2 of   14 Time   8:49:58
  Original Simulation        4  25  2007 Yr    2 of   14 Time   8:49:58
  Original Simulation        4  26  2007 Yr    2 of   14 Time   8:49:59
  Original Simulation        4  27  2007 Yr    2 of   14 Time   8:49:59
  Original Simulation        4  28  2007 Yr    2 of   14 Time   8:49:59
  Original Simulation        4  29  2007 Yr    2 of   14 Time   8:49:59
  Original Simulation        4  30  2007 Yr    2 of   14 Time   8:49:59
  Original Simulation        5   1  2007 Yr    2 of   14 Time   8:50: 0
  Original Simulation        5   2  2007 Yr    2 of   14 Time   8:50: 0
  Original Simulation        5   3  2007 Yr    2 of   14 Time   8:50: 0
  Original Simulation        5   4  2007 Yr    2 of   14 Time   8:50: 0
  Original Simulation        5   5  2007 Yr    2 of   14 Time   8:50: 0
  Original Simulation        5   6  2007 Yr    2 of   14 Time   8:50: 0
  Original Simulation        5   7  2007 Yr    2 of   14 Time   8:50: 1
  Original Simulation        5   8  2007 Yr    2 of   14 Time   8:50: 1
  Original Simulation        5   9  2007 Yr    2 of   14 Time   8:50: 1
  Original Simulation        5  10  2007 Yr    2 of   14 Time   8:50: 1
  Original Simulation        5  11  2007 Yr    2 of   14 Time   8:50: 1
  Original Simulation        5  12  2007 Yr    2 of   14 Time   8:50: 2
  Original Simulation        5  13  2007 Yr    2 of   14 Time   8:50: 2
  Original Simulation        5  14  2007 Yr    2 of   14 Time   8:50: 2
  Original Simulation        5  15  2007 Yr    2 of   14 Time   8:50: 2
  Original Simulation        5  16  2007 Yr    2 of   14 Time   8:50: 2
  Original Simulation        5  17  2007 Yr    2 of   14 Time   8:50: 3
  Original Simulation        5  18  2007 Yr    2 of   14 Time   8:50: 3
  Original Simulation        5  19  2007 Yr    2 of   14 Time   8:50: 3
  Original Simulation        5  20  2007 Yr    2 of   14 Time   8:50: 3
  Original Simulation        5  21  2007 Yr    2 of   14 Time   8:50: 3
  Original Simulation        5  22  2007 Yr    2 of   14 Time   8:50: 4
  Original Simulation        5  23  2007 Yr    2 of   14 Time   8:50: 4
  Original Simulation        5  24  2007 Yr    2 of   14 Time   8:50: 4
  Original Simulation        5  25  2007 Yr    2 of   14 Time   8:50: 4
  Original Simulation        5  26  2007 Yr    2 of   14 Time   8:50: 4
  Original Simulation        5  27  2007 Yr    2 of   14 Time   8:50: 4
  Original Simulation        5  28  2007 Yr    2 of   14 Time   8:50: 4
  Original Simulation        5  29  2007 Yr    2 of   14 Time   8:50: 5
  Original Simulation        5  30  2007 Yr    2 of   14 Time   8:50: 5
  Original Simulation        5  31  2007 Yr    2 of   14 Time   8:50: 5
  Original Simulation        6   1  2007 Yr    2 of   14 Time   8:50: 5
  Original Simulation        6   2  2007 Yr    2 of   14 Time   8:50: 5
  Original Simulation        6   3  2007 Yr    2 of   14 Time   8:50: 6
  Original Simulation        6   4  2007 Yr    2 of   14 Time   8:50: 6
  Original Simulation        6   5  2007 Yr    2 of   14 Time   8:50: 6
  Original Simulation        6   6  2007 Yr    2 of   14 Time   8:50: 6
  Original Simulation        6   7  2007 Yr    2 of   14 Time   8:50: 6
  Original Simulation        6   8  2007 Yr    2 of   14 Time   8:50: 6
  Original Simulation        6   9  2007 Yr    2 of   14 Time   8:50: 7
  Original Simulation        6  10  2007 Yr    2 of   14 Time   8:50: 7
  Original Simulation        6  11  2007 Yr    2 of   14 Time   8:50: 7
  Original Simulation        6  12  2007 Yr    2 of   14 Time   8:50: 7
  Original Simulation        6  13  2007 Yr    2 of   14 Time   8:50: 7
  Original Simulation        6  14  2007 Yr    2 of   14 Time   8:50: 8
  Original Simulation        6  15  2007 Yr    2 of   14 Time   8:50: 8
  Original Simulation        6  16  2007 Yr    2 of   14 Time   8:50: 8
  Original Simulation        6  17  2007 Yr    2 of   14 Time   8:50: 8
  Original Simulation        6  18  2007 Yr    2 of   14 Time   8:50: 8
  Original Simulation        6  19  2007 Yr    2 of   14 Time   8:50: 9
  Original Simulation        6  20  2007 Yr    2 of   14 Time   8:50: 9
  Original Simulation        6  21  2007 Yr    2 of   14 Time   8:50: 9
  Original Simulation        6  22  2007 Yr    2 of   14 Time   8:50: 9
  Original Simulation        6  23  2007 Yr    2 of   14 Time   8:50: 9
  Original Simulation        6  24  2007 Yr    2 of   14 Time   8:50:10
  Original Simulation        6  25  2007 Yr    2 of   14 Time   8:50:10
  Original Simulation        6  26  2007 Yr    2 of   14 Time   8:50:10
  Original Simulation        6  27  2007 Yr    2 of   14 Time   8:50:10
  Original Simulation        6  28  2007 Yr    2 of   14 Time   8:50:10
  Original Simulation        6  29  2007 Yr    2 of   14 Time   8:50:10
  Original Simulation        6  30  2007 Yr    2 of   14 Time   8:50:10
  Original Simulation        7   1  2007 Yr    2 of   14 Time   8:50:11
  Original Simulation        7   2  2007 Yr    2 of   14 Time   8:50:11
  Original Simulation        7   3  2007 Yr    2 of   14 Time   8:50:11
  Original Simulation        7   4  2007 Yr    2 of   14 Time   8:50:11
  Original Simulation        7   5  2007 Yr    2 of   14 Time   8:50:11
  Original Simulation        7   6  2007 Yr    2 of   14 Time   8:50:12
  Original Simulation        7   7  2007 Yr    2 of   14 Time   8:50:12
  Original Simulation        7   8  2007 Yr    2 of   14 Time   8:50:12
  Original Simulation        7   9  2007 Yr    2 of   14 Time   8:50:12
  Original Simulation        7  10  2007 Yr    2 of   14 Time   8:50:12
  Original Simulation        7  11  2007 Yr    2 of   14 Time   8:50:12
  Original Simulation        7  12  2007 Yr    2 of   14 Time   8:50:13
  Original Simulation        7  13  2007 Yr    2 of   14 Time   8:50:13
  Original Simulation        7  14  2007 Yr    2 of   14 Time   8:50:13
  Original Simulation        7  15  2007 Yr    2 of   14 Time   8:50:13
  Original Simulation        7  16  2007 Yr    2 of   14 Time   8:50:13
  Original Simulation        7  17  2007 Yr    2 of   14 Time   8:50:13
  Original Simulation        7  18  2007 Yr    2 of   14 Time   8:50:14
  Original Simulation        7  19  2007 Yr    2 of   14 Time   8:50:14
  Original Simulation        7  20  2007 Yr    2 of   14 Time   8:50:14
  Original Simulation        7  21  2007 Yr    2 of   14 Time   8:50:14
  Original Simulation        7  22  2007 Yr    2 of   14 Time   8:50:14
  Original Simulation        7  23  2007 Yr    2 of   14 Time   8:50:14
  Original Simulation        7  24  2007 Yr    2 of   14 Time   8:50:15
  Original Simulation        7  25  2007 Yr    2 of   14 Time   8:50:15
  Original Simulation        7  26  2007 Yr    2 of   14 Time   8:50:15
  Original Simulation        7  27  2007 Yr    2 of   14 Time   8:50:15
  Original Simulation        7  28  2007 Yr    2 of   14 Time   8:50:15
  Original Simulation        7  29  2007 Yr    2 of   14 Time   8:50:15
  Original Simulation        7  30  2007 Yr    2 of   14 Time   8:50:16
  Original Simulation        7  31  2007 Yr    2 of   14 Time   8:50:16
  Original Simulation        8   1  2007 Yr    2 of   14 Time   8:50:16
  Original Simulation        8   2  2007 Yr    2 of   14 Time   8:50:16
  Original Simulation        8   3  2007 Yr    2 of   14 Time   8:50:16
  Original Simulation        8   4  2007 Yr    2 of   14 Time   8:50:16
  Original Simulation        8   5  2007 Yr    2 of   14 Time   8:50:17
  Original Simulation        8   6  2007 Yr    2 of   14 Time   8:50:17
  Original Simulation        8   7  2007 Yr    2 of   14 Time   8:50:17
  Original Simulation        8   8  2007 Yr    2 of   14 Time   8:50:17
  Original Simulation        8   9  2007 Yr    2 of   14 Time   8:50:17
  Original Simulation        8  10  2007 Yr    2 of   14 Time   8:50:18
  Original Simulation        8  11  2007 Yr    2 of   14 Time   8:50:18
  Original Simulation        8  12  2007 Yr    2 of   14 Time   8:50:18
  Original Simulation        8  13  2007 Yr    2 of   14 Time   8:50:18
  Original Simulation        8  14  2007 Yr    2 of   14 Time   8:50:18
  Original Simulation        8  15  2007 Yr    2 of   14 Time   8:50:18
  Original Simulation        8  16  2007 Yr    2 of   14 Time   8:50:19
  Original Simulation        8  17  2007 Yr    2 of   14 Time   8:50:19
  Original Simulation        8  18  2007 Yr    2 of   14 Time   8:50:19
  Original Simulation        8  19  2007 Yr    2 of   14 Time   8:50:19
  Original Simulation        8  20  2007 Yr    2 of   14 Time   8:50:19
  Original Simulation        8  21  2007 Yr    2 of   14 Time   8:50:19
  Original Simulation        8  22  2007 Yr    2 of   14 Time   8:50:20
  Original Simulation        8  23  2007 Yr    2 of   14 Time   8:50:20
  Original Simulation        8  24  2007 Yr    2 of   14 Time   8:50:20
  Original Simulation        8  25  2007 Yr    2 of   14 Time   8:50:20
  Original Simulation        8  26  2007 Yr    2 of   14 Time   8:50:20
  Original Simulation        8  27  2007 Yr    2 of   14 Time   8:50:20
  Original Simulation        8  28  2007 Yr    2 of   14 Time   8:50:21
  Original Simulation        8  29  2007 Yr    2 of   14 Time   8:50:21
  Original Simulation        8  30  2007 Yr    2 of   14 Time   8:50:21
  Original Simulation        8  31  2007 Yr    2 of   14 Time   8:50:21
  Original Simulation        9   1  2007 Yr    2 of   14 Time   8:50:21
  Original Simulation        9   2  2007 Yr    2 of   14 Time   8:50:22
  Original Simulation        9   3  2007 Yr    2 of   14 Time   8:50:22
  Original Simulation        9   4  2007 Yr    2 of   14 Time   8:50:22
  Original Simulation        9   5  2007 Yr    2 of   14 Time   8:50:22
  Original Simulation        9   6  2007 Yr    2 of   14 Time   8:50:22
  Original Simulation        9   7  2007 Yr    2 of   14 Time   8:50:22
  Original Simulation        9   8  2007 Yr    2 of   14 Time   8:50:23
  Original Simulation        9   9  2007 Yr    2 of   14 Time   8:50:23
  Original Simulation        9  10  2007 Yr    2 of   14 Time   8:50:23
  Original Simulation        9  11  2007 Yr    2 of   14 Time   8:50:23
  Original Simulation        9  12  2007 Yr    2 of   14 Time   8:50:23
  Original Simulation        9  13  2007 Yr    2 of   14 Time   8:50:23
  Original Simulation        9  14  2007 Yr    2 of   14 Time   8:50:24
  Original Simulation        9  15  2007 Yr    2 of   14 Time   8:50:24
  Original Simulation        9  16  2007 Yr    2 of   14 Time   8:50:24
  Original Simulation        9  17  2007 Yr    2 of   14 Time   8:50:24
  Original Simulation        9  18  2007 Yr    2 of   14 Time   8:50:24
  Original Simulation        9  19  2007 Yr    2 of   14 Time   8:50:24
  Original Simulation        9  20  2007 Yr    2 of   14 Time   8:50:25
  Original Simulation        9  21  2007 Yr    2 of   14 Time   8:50:25
  Original Simulation        9  22  2007 Yr    2 of   14 Time   8:50:25
  Original Simulation        9  23  2007 Yr    2 of   14 Time   8:50:25
  Original Simulation        9  24  2007 Yr    2 of   14 Time   8:50:25
  Original Simulation        9  25  2007 Yr    2 of   14 Time   8:50:25
  Original Simulation        9  26  2007 Yr    2 of   14 Time   8:50:26
  Original Simulation        9  27  2007 Yr    2 of   14 Time   8:50:26
  Original Simulation        9  28  2007 Yr    2 of   14 Time   8:50:26
  Original Simulation        9  29  2007 Yr    2 of   14 Time   8:50:26
  Original Simulation        9  30  2007 Yr    2 of   14 Time   8:50:26
  Original Simulation       10   1  2007 Yr    2 of   14 Time   8:50:27
  Original Simulation       10   2  2007 Yr    2 of   14 Time   8:50:27
  Original Simulation       10   3  2007 Yr    2 of   14 Time   8:50:27
  Original Simulation       10   4  2007 Yr    2 of   14 Time   8:50:27
  Original Simulation       10   5  2007 Yr    2 of   14 Time   8:50:27
  Original Simulation       10   6  2007 Yr    2 of   14 Time   8:50:27
  Original Simulation       10   7  2007 Yr    2 of   14 Time   8:50:28
  Original Simulation       10   8  2007 Yr    2 of   14 Time   8:50:28
  Original Simulation       10   9  2007 Yr    2 of   14 Time   8:50:28
  Original Simulation       10  10  2007 Yr    2 of   14 Time   8:50:28
  Original Simulation       10  11  2007 Yr    2 of   14 Time   8:50:28
  Original Simulation       10  12  2007 Yr    2 of   14 Time   8:50:29
  Original Simulation       10  13  2007 Yr    2 of   14 Time   8:50:29
  Original Simulation       10  14  2007 Yr    2 of   14 Time   8:50:29
  Original Simulation       10  15  2007 Yr    2 of   14 Time   8:50:29
  Original Simulation       10  16  2007 Yr    2 of   14 Time   8:50:29
  Original Simulation       10  17  2007 Yr    2 of   14 Time   8:50:29
  Original Simulation       10  18  2007 Yr    2 of   14 Time   8:50:30
  Original Simulation       10  19  2007 Yr    2 of   14 Time   8:50:30
  Original Simulation       10  20  2007 Yr    2 of   14 Time   8:50:30
  Original Simulation       10  21  2007 Yr    2 of   14 Time   8:50:30
  Original Simulation       10  22  2007 Yr    2 of   14 Time   8:50:30
  Original Simulation       10  23  2007 Yr    2 of   14 Time   8:50:30
  Original Simulation       10  24  2007 Yr    2 of   14 Time   8:50:30
  Original Simulation       10  25  2007 Yr    2 of   14 Time   8:50:31
  Original Simulation       10  26  2007 Yr    2 of   14 Time   8:50:31
  Original Simulation       10  27  2007 Yr    2 of   14 Time   8:50:31
  Original Simulation       10  28  2007 Yr    2 of   14 Time   8:50:31
  Original Simulation       10  29  2007 Yr    2 of   14 Time   8:50:31
  Original Simulation       10  30  2007 Yr    2 of   14 Time   8:50:31
  Original Simulation       10  31  2007 Yr    2 of   14 Time   8:50:32
  Original Simulation       11   1  2007 Yr    2 of   14 Time   8:50:32
  Original Simulation       11   2  2007 Yr    2 of   14 Time   8:50:32
  Original Simulation       11   3  2007 Yr    2 of   14 Time   8:50:32
  Original Simulation       11   4  2007 Yr    2 of   14 Time   8:50:32
  Original Simulation       11   5  2007 Yr    2 of   14 Time   8:50:33
  Original Simulation       11   6  2007 Yr    2 of   14 Time   8:50:33
  Original Simulation       11   7  2007 Yr    2 of   14 Time   8:50:33
  Original Simulation       11   8  2007 Yr    2 of   14 Time   8:50:33
  Original Simulation       11   9  2007 Yr    2 of   14 Time   8:50:33
  Original Simulation       11  10  2007 Yr    2 of   14 Time   8:50:33
  Original Simulation       11  11  2007 Yr    2 of   14 Time   8:50:34
  Original Simulation       11  12  2007 Yr    2 of   14 Time   8:50:34
  Original Simulation       11  13  2007 Yr    2 of   14 Time   8:50:34
  Original Simulation       11  14  2007 Yr    2 of   14 Time   8:50:34
  Original Simulation       11  15  2007 Yr    2 of   14 Time   8:50:34
  Original Simulation       11  16  2007 Yr    2 of   14 Time   8:50:34
  Original Simulation       11  17  2007 Yr    2 of   14 Time   8:50:35
  Original Simulation       11  18  2007 Yr    2 of   14 Time   8:50:35
  Original Simulation       11  19  2007 Yr    2 of   14 Time   8:50:35
  Original Simulation       11  20  2007 Yr    2 of   14 Time   8:50:35
  Original Simulation       11  21  2007 Yr    2 of   14 Time   8:50:35
  Original Simulation       11  22  2007 Yr    2 of   14 Time   8:50:35
  Original Simulation       11  23  2007 Yr    2 of   14 Time   8:50:36
  Original Simulation       11  24  2007 Yr    2 of   14 Time   8:50:36
  Original Simulation       11  25  2007 Yr    2 of   14 Time   8:50:36
  Original Simulation       11  26  2007 Yr    2 of   14 Time   8:50:36
  Original Simulation       11  27  2007 Yr    2 of   14 Time   8:50:36
  Original Simulation       11  28  2007 Yr    2 of   14 Time   8:50:36
  Original Simulation       11  29  2007 Yr    2 of   14 Time   8:50:37
  Original Simulation       11  30  2007 Yr    2 of   14 Time   8:50:37
  Original Simulation       12   1  2007 Yr    2 of   14 Time   8:50:37
  Original Simulation       12   2  2007 Yr    2 of   14 Time   8:50:37
  Original Simulation       12   3  2007 Yr    2 of   14 Time   8:50:37
  Original Simulation       12   4  2007 Yr    2 of   14 Time   8:50:38
  Original Simulation       12   5  2007 Yr    2 of   14 Time   8:50:38
  Original Simulation       12   6  2007 Yr    2 of   14 Time   8:50:38
  Original Simulation       12   7  2007 Yr    2 of   14 Time   8:50:38
  Original Simulation       12   8  2007 Yr    2 of   14 Time   8:50:38
  Original Simulation       12   9  2007 Yr    2 of   14 Time   8:50:38
  Original Simulation       12  10  2007 Yr    2 of   14 Time   8:50:39
  Original Simulation       12  11  2007 Yr    2 of   14 Time   8:50:39
  Original Simulation       12  12  2007 Yr    2 of   14 Time   8:50:39
  Original Simulation       12  13  2007 Yr    2 of   14 Time   8:50:39
  Original Simulation       12  14  2007 Yr    2 of   14 Time   8:50:39
  Original Simulation       12  15  2007 Yr    2 of   14 Time   8:50:39
  Original Simulation       12  16  2007 Yr    2 of   14 Time   8:50:40
  Original Simulation       12  17  2007 Yr    2 of   14 Time   8:50:40
  Original Simulation       12  18  2007 Yr    2 of   14 Time   8:50:40
  Original Simulation       12  19  2007 Yr    2 of   14 Time   8:50:40
  Original Simulation       12  20  2007 Yr    2 of   14 Time   8:50:40
  Original Simulation       12  21  2007 Yr    2 of   14 Time   8:50:40
  Original Simulation       12  22  2007 Yr    2 of   14 Time   8:50:40
  Original Simulation       12  23  2007 Yr    2 of   14 Time   8:50:41
  Original Simulation       12  24  2007 Yr    2 of   14 Time   8:50:41
  Original Simulation       12  25  2007 Yr    2 of   14 Time   8:50:41
  Original Simulation       12  26  2007 Yr    2 of   14 Time   8:50:41
  Original Simulation       12  27  2007 Yr    2 of   14 Time   8:50:41
  Original Simulation       12  28  2007 Yr    2 of   14 Time   8:50:41
  Original Simulation       12  29  2007 Yr    2 of   14 Time   8:50:42
  Original Simulation       12  30  2007 Yr    2 of   14 Time   8:50:42
  Original Simulation       12  31  2007 Yr    2 of   14 Time   8:50:42
  Original Simulation        1   1  2008 Yr    3 of   14 Time   8:50:42
  Original Simulation        1   2  2008 Yr    3 of   14 Time   8:50:42
  Original Simulation        1   3  2008 Yr    3 of   14 Time   8:50:43
  Original Simulation        1   4  2008 Yr    3 of   14 Time   8:50:43
  Original Simulation        1   5  2008 Yr    3 of   14 Time   8:50:43
  Original Simulation        1   6  2008 Yr    3 of   14 Time   8:50:43
  Original Simulation        1   7  2008 Yr    3 of   14 Time   8:50:43
  Original Simulation        1   8  2008 Yr    3 of   14 Time   8:50:43
  Original Simulation        1   9  2008 Yr    3 of   14 Time   8:50:44
  Original Simulation        1  10  2008 Yr    3 of   14 Time   8:50:44
  Original Simulation        1  11  2008 Yr    3 of   14 Time   8:50:44
  Original Simulation        1  12  2008 Yr    3 of   14 Time   8:50:44
  Original Simulation        1  13  2008 Yr    3 of   14 Time   8:50:44
  Original Simulation        1  14  2008 Yr    3 of   14 Time   8:50:44
  Original Simulation        1  15  2008 Yr    3 of   14 Time   8:50:45
  Original Simulation        1  16  2008 Yr    3 of   14 Time   8:50:45
  Original Simulation        1  17  2008 Yr    3 of   14 Time   8:50:45
  Original Simulation        1  18  2008 Yr    3 of   14 Time   8:50:45
  Original Simulation        1  19  2008 Yr    3 of   14 Time   8:50:45
  Original Simulation        1  20  2008 Yr    3 of   14 Time   8:50:46
  Original Simulation        1  21  2008 Yr    3 of   14 Time   8:50:46
  Original Simulation        1  22  2008 Yr    3 of   14 Time   8:50:46
  Original Simulation        1  23  2008 Yr    3 of   14 Time   8:50:46
  Original Simulation        1  24  2008 Yr    3 of   14 Time   8:50:46
  Original Simulation        1  25  2008 Yr    3 of   14 Time   8:50:46
  Original Simulation        1  26  2008 Yr    3 of   14 Time   8:50:47
  Original Simulation        1  27  2008 Yr    3 of   14 Time   8:50:47
  Original Simulation        1  28  2008 Yr    3 of   14 Time   8:50:47
  Original Simulation        1  29  2008 Yr    3 of   14 Time   8:50:47
  Original Simulation        1  30  2008 Yr    3 of   14 Time   8:50:47
  Original Simulation        1  31  2008 Yr    3 of   14 Time   8:50:47
  Original Simulation        2   1  2008 Yr    3 of   14 Time   8:50:48
  Original Simulation        2   2  2008 Yr    3 of   14 Time   8:50:48
  Original Simulation        2   3  2008 Yr    3 of   14 Time   8:50:48
  Original Simulation        2   4  2008 Yr    3 of   14 Time   8:50:48
  Original Simulation        2   5  2008 Yr    3 of   14 Time   8:50:48
  Original Simulation        2   6  2008 Yr    3 of   14 Time   8:50:49
  Original Simulation        2   7  2008 Yr    3 of   14 Time   8:50:49
  Original Simulation        2   8  2008 Yr    3 of   14 Time   8:50:49
  Original Simulation        2   9  2008 Yr    3 of   14 Time   8:50:49
  Original Simulation        2  10  2008 Yr    3 of   14 Time   8:50:49
  Original Simulation        2  11  2008 Yr    3 of   14 Time   8:50:49
  Original Simulation        2  12  2008 Yr    3 of   14 Time   8:50:49
  Original Simulation        2  13  2008 Yr    3 of   14 Time   8:50:50
  Original Simulation        2  14  2008 Yr    3 of   14 Time   8:50:50
  Original Simulation        2  15  2008 Yr    3 of   14 Time   8:50:50
  Original Simulation        2  16  2008 Yr    3 of   14 Time   8:50:50
  Original Simulation        2  17  2008 Yr    3 of   14 Time   8:50:50
  Original Simulation        2  18  2008 Yr    3 of   14 Time   8:50:50
  Original Simulation        2  19  2008 Yr    3 of   14 Time   8:50:51
  Original Simulation        2  20  2008 Yr    3 of   14 Time   8:50:51
  Original Simulation        2  21  2008 Yr    3 of   14 Time   8:50:51
  Original Simulation        2  22  2008 Yr    3 of   14 Time   8:50:51
  Original Simulation        2  23  2008 Yr    3 of   14 Time   8:50:51
  Original Simulation        2  24  2008 Yr    3 of   14 Time   8:50:52
  Original Simulation        2  25  2008 Yr    3 of   14 Time   8:50:52
  Original Simulation        2  26  2008 Yr    3 of   14 Time   8:50:52
  Original Simulation        2  27  2008 Yr    3 of   14 Time   8:50:52
  Original Simulation        2  28  2008 Yr    3 of   14 Time   8:50:52
  Original Simulation        2  29  2008 Yr    3 of   14 Time   8:50:52
  Original Simulation        3   1  2008 Yr    3 of   14 Time   8:50:53
  Original Simulation        3   2  2008 Yr    3 of   14 Time   8:50:53
  Original Simulation        3   3  2008 Yr    3 of   14 Time   8:50:53
  Original Simulation        3   4  2008 Yr    3 of   14 Time   8:50:53
  Original Simulation        3   5  2008 Yr    3 of   14 Time   8:50:53
  Original Simulation        3   6  2008 Yr    3 of   14 Time   8:50:53
  Original Simulation        3   7  2008 Yr    3 of   14 Time   8:50:54
  Original Simulation        3   8  2008 Yr    3 of   14 Time   8:50:54
  Original Simulation        3   9  2008 Yr    3 of   14 Time   8:50:54
  Original Simulation        3  10  2008 Yr    3 of   14 Time   8:50:54
  Original Simulation        3  11  2008 Yr    3 of   14 Time   8:50:54
  Original Simulation        3  12  2008 Yr    3 of   14 Time   8:50:55
  Original Simulation        3  13  2008 Yr    3 of   14 Time   8:50:55
  Original Simulation        3  14  2008 Yr    3 of   14 Time   8:50:55
  Original Simulation        3  15  2008 Yr    3 of   14 Time   8:50:55
  Original Simulation        3  16  2008 Yr    3 of   14 Time   8:50:55
  Original Simulation        3  17  2008 Yr    3 of   14 Time   8:50:56
  Original Simulation        3  18  2008 Yr    3 of   14 Time   8:50:56
  Original Simulation        3  19  2008 Yr    3 of   14 Time   8:50:56
  Original Simulation        3  20  2008 Yr    3 of   14 Time   8:50:56
  Original Simulation        3  21  2008 Yr    3 of   14 Time   8:50:56
  Original Simulation        3  22  2008 Yr    3 of   14 Time   8:50:57
  Original Simulation        3  23  2008 Yr    3 of   14 Time   8:50:57
  Original Simulation        3  24  2008 Yr    3 of   14 Time   8:50:57
  Original Simulation        3  25  2008 Yr    3 of   14 Time   8:50:57
  Original Simulation        3  26  2008 Yr    3 of   14 Time   8:50:57
  Original Simulation        3  27  2008 Yr    3 of   14 Time   8:50:57
  Original Simulation        3  28  2008 Yr    3 of   14 Time   8:50:58
  Original Simulation        3  29  2008 Yr    3 of   14 Time   8:50:58
  Original Simulation        3  30  2008 Yr    3 of   14 Time   8:50:58
  Original Simulation        3  31  2008 Yr    3 of   14 Time   8:50:58
  Original Simulation        4   1  2008 Yr    3 of   14 Time   8:50:58
  Original Simulation        4   2  2008 Yr    3 of   14 Time   8:50:58
  Original Simulation        4   3  2008 Yr    3 of   14 Time   8:50:59
  Original Simulation        4   4  2008 Yr    3 of   14 Time   8:50:59
  Original Simulation        4   5  2008 Yr    3 of   14 Time   8:50:59
  Original Simulation        4   6  2008 Yr    3 of   14 Time   8:50:59
  Original Simulation        4   7  2008 Yr    3 of   14 Time   8:50:59
  Original Simulation        4   8  2008 Yr    3 of   14 Time   8:50:59
  Original Simulation        4   9  2008 Yr    3 of   14 Time   8:51: 0
  Original Simulation        4  10  2008 Yr    3 of   14 Time   8:51: 0
  Original Simulation        4  11  2008 Yr    3 of   14 Time   8:51: 0
  Original Simulation        4  12  2008 Yr    3 of   14 Time   8:51: 0
  Original Simulation        4  13  2008 Yr    3 of   14 Time   8:51: 0
  Original Simulation        4  14  2008 Yr    3 of   14 Time   8:51: 0
  Original Simulation        4  15  2008 Yr    3 of   14 Time   8:51: 1
  Original Simulation        4  16  2008 Yr    3 of   14 Time   8:51: 1
  Original Simulation        4  17  2008 Yr    3 of   14 Time   8:51: 1
  Original Simulation        4  18  2008 Yr    3 of   14 Time   8:51: 1
  Original Simulation        4  19  2008 Yr    3 of   14 Time   8:51: 1
  Original Simulation        4  20  2008 Yr    3 of   14 Time   8:51: 1
  Original Simulation        4  21  2008 Yr    3 of   14 Time   8:51: 2
  Original Simulation        4  22  2008 Yr    3 of   14 Time   8:51: 2
  Original Simulation        4  23  2008 Yr    3 of   14 Time   8:51: 2
  Original Simulation        4  24  2008 Yr    3 of   14 Time   8:51: 2
  Original Simulation        4  25  2008 Yr    3 of   14 Time   8:51: 2
  Original Simulation        4  26  2008 Yr    3 of   14 Time   8:51: 2
  Original Simulation        4  27  2008 Yr    3 of   14 Time   8:51: 3
  Original Simulation        4  28  2008 Yr    3 of   14 Time   8:51: 3
  Original Simulation        4  29  2008 Yr    3 of   14 Time   8:51: 3
  Original Simulation        4  30  2008 Yr    3 of   14 Time   8:51: 3
  Original Simulation        5   1  2008 Yr    3 of   14 Time   8:51: 4
  Original Simulation        5   2  2008 Yr    3 of   14 Time   8:51: 4
  Original Simulation        5   3  2008 Yr    3 of   14 Time   8:51: 4
  Original Simulation        5   4  2008 Yr    3 of   14 Time   8:51: 4
  Original Simulation        5   5  2008 Yr    3 of   14 Time   8:51: 4
  Original Simulation        5   6  2008 Yr    3 of   14 Time   8:51: 4
  Original Simulation        5   7  2008 Yr    3 of   14 Time   8:51: 5
  Original Simulation        5   8  2008 Yr    3 of   14 Time   8:51: 5
  Original Simulation        5   9  2008 Yr    3 of   14 Time   8:51: 5
  Original Simulation        5  10  2008 Yr    3 of   14 Time   8:51: 5
  Original Simulation        5  11  2008 Yr    3 of   14 Time   8:51: 5
  Original Simulation        5  12  2008 Yr    3 of   14 Time   8:51: 5
  Original Simulation        5  13  2008 Yr    3 of   14 Time   8:51: 6
  Original Simulation        5  14  2008 Yr    3 of   14 Time   8:51: 6
  Original Simulation        5  15  2008 Yr    3 of   14 Time   8:51: 6
  Original Simulation        5  16  2008 Yr    3 of   14 Time   8:51: 6
  Original Simulation        5  17  2008 Yr    3 of   14 Time   8:51: 6
  Original Simulation        5  18  2008 Yr    3 of   14 Time   8:51: 7
  Original Simulation        5  19  2008 Yr    3 of   14 Time   8:51: 7
  Original Simulation        5  20  2008 Yr    3 of   14 Time   8:51: 7
  Original Simulation        5  21  2008 Yr    3 of   14 Time   8:51: 7
  Original Simulation        5  22  2008 Yr    3 of   14 Time   8:51: 7
  Original Simulation        5  23  2008 Yr    3 of   14 Time   8:51: 8
  Original Simulation        5  24  2008 Yr    3 of   14 Time   8:51: 8
  Original Simulation        5  25  2008 Yr    3 of   14 Time   8:51: 8
  Original Simulation        5  26  2008 Yr    3 of   14 Time   8:51: 9
  Original Simulation        5  27  2008 Yr    3 of   14 Time   8:51: 9
  Original Simulation        5  28  2008 Yr    3 of   14 Time   8:51: 9
  Original Simulation        5  29  2008 Yr    3 of   14 Time   8:51: 9
  Original Simulation        5  30  2008 Yr    3 of   14 Time   8:51: 9
  Original Simulation        5  31  2008 Yr    3 of   14 Time   8:51:10
  Original Simulation        6   1  2008 Yr    3 of   14 Time   8:51:10
  Original Simulation        6   2  2008 Yr    3 of   14 Time   8:51:10
  Original Simulation        6   3  2008 Yr    3 of   14 Time   8:51:10
  Original Simulation        6   4  2008 Yr    3 of   14 Time   8:51:10
  Original Simulation        6   5  2008 Yr    3 of   14 Time   8:51:11
  Original Simulation        6   6  2008 Yr    3 of   14 Time   8:51:11
  Original Simulation        6   7  2008 Yr    3 of   14 Time   8:51:11
  Original Simulation        6   8  2008 Yr    3 of   14 Time   8:51:11
  Original Simulation        6   9  2008 Yr    3 of   14 Time   8:51:11
  Original Simulation        6  10  2008 Yr    3 of   14 Time   8:51:12
  Original Simulation        6  11  2008 Yr    3 of   14 Time   8:51:12
  Original Simulation        6  12  2008 Yr    3 of   14 Time   8:51:12
  Original Simulation        6  13  2008 Yr    3 of   14 Time   8:51:12
  Original Simulation        6  14  2008 Yr    3 of   14 Time   8:51:12
  Original Simulation        6  15  2008 Yr    3 of   14 Time   8:51:13
  Original Simulation        6  16  2008 Yr    3 of   14 Time   8:51:13
  Original Simulation        6  17  2008 Yr    3 of   14 Time   8:51:13
  Original Simulation        6  18  2008 Yr    3 of   14 Time   8:51:13
  Original Simulation        6  19  2008 Yr    3 of   14 Time   8:51:13
  Original Simulation        6  20  2008 Yr    3 of   14 Time   8:51:13
  Original Simulation        6  21  2008 Yr    3 of   14 Time   8:51:14
  Original Simulation        6  22  2008 Yr    3 of   14 Time   8:51:14
  Original Simulation        6  23  2008 Yr    3 of   14 Time   8:51:14
  Original Simulation        6  24  2008 Yr    3 of   14 Time   8:51:14
  Original Simulation        6  25  2008 Yr    3 of   14 Time   8:51:14
  Original Simulation        6  26  2008 Yr    3 of   14 Time   8:51:14
  Original Simulation        6  27  2008 Yr    3 of   14 Time   8:51:14
  Original Simulation        6  28  2008 Yr    3 of   14 Time   8:51:15
  Original Simulation        6  29  2008 Yr    3 of   14 Time   8:51:15
  Original Simulation        6  30  2008 Yr    3 of   14 Time   8:51:15
  Original Simulation        7   1  2008 Yr    3 of   14 Time   8:51:15
  Original Simulation        7   2  2008 Yr    3 of   14 Time   8:51:15
  Original Simulation        7   3  2008 Yr    3 of   14 Time   8:51:16
  Original Simulation        7   4  2008 Yr    3 of   14 Time   8:51:16
  Original Simulation        7   5  2008 Yr    3 of   14 Time   8:51:16
  Original Simulation        7   6  2008 Yr    3 of   14 Time   8:51:16
  Original Simulation        7   7  2008 Yr    3 of   14 Time   8:51:16
  Original Simulation        7   8  2008 Yr    3 of   14 Time   8:51:16
  Original Simulation        7   9  2008 Yr    3 of   14 Time   8:51:17
  Original Simulation        7  10  2008 Yr    3 of   14 Time   8:51:17
  Original Simulation        7  11  2008 Yr    3 of   14 Time   8:51:17
  Original Simulation        7  12  2008 Yr    3 of   14 Time   8:51:17
  Original Simulation        7  13  2008 Yr    3 of   14 Time   8:51:17
  Original Simulation        7  14  2008 Yr    3 of   14 Time   8:51:17
  Original Simulation        7  15  2008 Yr    3 of   14 Time   8:51:18
  Original Simulation        7  16  2008 Yr    3 of   14 Time   8:51:18
  Original Simulation        7  17  2008 Yr    3 of   14 Time   8:51:18
  Original Simulation        7  18  2008 Yr    3 of   14 Time   8:51:18
  Original Simulation        7  19  2008 Yr    3 of   14 Time   8:51:18
  Original Simulation        7  20  2008 Yr    3 of   14 Time   8:51:18
  Original Simulation        7  21  2008 Yr    3 of   14 Time   8:51:19
  Original Simulation        7  22  2008 Yr    3 of   14 Time   8:51:19
  Original Simulation        7  23  2008 Yr    3 of   14 Time   8:51:19
  Original Simulation        7  24  2008 Yr    3 of   14 Time   8:51:19
  Original Simulation        7  25  2008 Yr    3 of   14 Time   8:51:19
  Original Simulation        7  26  2008 Yr    3 of   14 Time   8:51:19
  Original Simulation        7  27  2008 Yr    3 of   14 Time   8:51:20
  Original Simulation        7  28  2008 Yr    3 of   14 Time   8:51:20
  Original Simulation        7  29  2008 Yr    3 of   14 Time   8:51:20
  Original Simulation        7  30  2008 Yr    3 of   14 Time   8:51:20
  Original Simulation        7  31  2008 Yr    3 of   14 Time   8:51:20
  Original Simulation        8   1  2008 Yr    3 of   14 Time   8:51:21
  Original Simulation        8   2  2008 Yr    3 of   14 Time   8:51:21
  Original Simulation        8   3  2008 Yr    3 of   14 Time   8:51:21
  Original Simulation        8   4  2008 Yr    3 of   14 Time   8:51:21
  Original Simulation        8   5  2008 Yr    3 of   14 Time   8:51:21
  Original Simulation        8   6  2008 Yr    3 of   14 Time   8:51:22
  Original Simulation        8   7  2008 Yr    3 of   14 Time   8:51:22
  Original Simulation        8   8  2008 Yr    3 of   14 Time   8:51:22
  Original Simulation        8   9  2008 Yr    3 of   14 Time   8:51:22
  Original Simulation        8  10  2008 Yr    3 of   14 Time   8:51:22
  Original Simulation        8  11  2008 Yr    3 of   14 Time   8:51:22
  Original Simulation        8  12  2008 Yr    3 of   14 Time   8:51:23
  Original Simulation        8  13  2008 Yr    3 of   14 Time   8:51:23
  Original Simulation        8  14  2008 Yr    3 of   14 Time   8:51:23
  Original Simulation        8  15  2008 Yr    3 of   14 Time   8:51:23
  Original Simulation        8  16  2008 Yr    3 of   14 Time   8:51:23
  Original Simulation        8  17  2008 Yr    3 of   14 Time   8:51:23
  Original Simulation        8  18  2008 Yr    3 of   14 Time   8:51:24
  Original Simulation        8  19  2008 Yr    3 of   14 Time   8:51:24
  Original Simulation        8  20  2008 Yr    3 of   14 Time   8:51:24
  Original Simulation        8  21  2008 Yr    3 of   14 Time   8:51:24
  Original Simulation        8  22  2008 Yr    3 of   14 Time   8:51:24
  Original Simulation        8  23  2008 Yr    3 of   14 Time   8:51:24
  Original Simulation        8  24  2008 Yr    3 of   14 Time   8:51:25
  Original Simulation        8  25  2008 Yr    3 of   14 Time   8:51:25
  Original Simulation        8  26  2008 Yr    3 of   14 Time   8:51:25
  Original Simulation        8  27  2008 Yr    3 of   14 Time   8:51:25
  Original Simulation        8  28  2008 Yr    3 of   14 Time   8:51:25
  Original Simulation        8  29  2008 Yr    3 of   14 Time   8:51:25
  Original Simulation        8  30  2008 Yr    3 of   14 Time   8:51:26
  Original Simulation        8  31  2008 Yr    3 of   14 Time   8:51:26
  Original Simulation        9   1  2008 Yr    3 of   14 Time   8:51:26
  Original Simulation        9   2  2008 Yr    3 of   14 Time   8:51:26
  Original Simulation        9   3  2008 Yr    3 of   14 Time   8:51:26
  Original Simulation        9   4  2008 Yr    3 of   14 Time   8:51:26
  Original Simulation        9   5  2008 Yr    3 of   14 Time   8:51:27
  Original Simulation        9   6  2008 Yr    3 of   14 Time   8:51:27
  Original Simulation        9   7  2008 Yr    3 of   14 Time   8:51:27
  Original Simulation        9   8  2008 Yr    3 of   14 Time   8:51:27
  Original Simulation        9   9  2008 Yr    3 of   14 Time   8:51:27
  Original Simulation        9  10  2008 Yr    3 of   14 Time   8:51:27
  Original Simulation        9  11  2008 Yr    3 of   14 Time   8:51:28
  Original Simulation        9  12  2008 Yr    3 of   14 Time   8:51:28
  Original Simulation        9  13  2008 Yr    3 of   14 Time   8:51:28
  Original Simulation        9  14  2008 Yr    3 of   14 Time   8:51:28
  Original Simulation        9  15  2008 Yr    3 of   14 Time   8:51:28
  Original Simulation        9  16  2008 Yr    3 of   14 Time   8:51:28
  Original Simulation        9  17  2008 Yr    3 of   14 Time   8:51:29
  Original Simulation        9  18  2008 Yr    3 of   14 Time   8:51:29
  Original Simulation        9  19  2008 Yr    3 of   14 Time   8:51:29
  Original Simulation        9  20  2008 Yr    3 of   14 Time   8:51:29
  Original Simulation        9  21  2008 Yr    3 of   14 Time   8:51:29
  Original Simulation        9  22  2008 Yr    3 of   14 Time   8:51:30
  Original Simulation        9  23  2008 Yr    3 of   14 Time   8:51:30
  Original Simulation        9  24  2008 Yr    3 of   14 Time   8:51:30
  Original Simulation        9  25  2008 Yr    3 of   14 Time   8:51:30
  Original Simulation        9  26  2008 Yr    3 of   14 Time   8:51:30
  Original Simulation        9  27  2008 Yr    3 of   14 Time   8:51:30
  Original Simulation        9  28  2008 Yr    3 of   14 Time   8:51:31
  Original Simulation        9  29  2008 Yr    3 of   14 Time   8:51:31
  Original Simulation        9  30  2008 Yr    3 of   14 Time   8:51:31
  Original Simulation       10   1  2008 Yr    3 of   14 Time   8:51:31
  Original Simulation       10   2  2008 Yr    3 of   14 Time   8:51:31
  Original Simulation       10   3  2008 Yr    3 of   14 Time   8:51:31
  Original Simulation       10   4  2008 Yr    3 of   14 Time   8:51:32
  Original Simulation       10   5  2008 Yr    3 of   14 Time   8:51:32
  Original Simulation       10   6  2008 Yr    3 of   14 Time   8:51:32
  Original Simulation       10   7  2008 Yr    3 of   14 Time   8:51:32
  Original Simulation       10   8  2008 Yr    3 of   14 Time   8:51:32
  Original Simulation       10   9  2008 Yr    3 of   14 Time   8:51:32
  Original Simulation       10  10  2008 Yr    3 of   14 Time   8:51:33
  Original Simulation       10  11  2008 Yr    3 of   14 Time   8:51:33
  Original Simulation       10  12  2008 Yr    3 of   14 Time   8:51:33
  Original Simulation       10  13  2008 Yr    3 of   14 Time   8:51:33
  Original Simulation       10  14  2008 Yr    3 of   14 Time   8:51:33
  Original Simulation       10  15  2008 Yr    3 of   14 Time   8:51:33
  Original Simulation       10  16  2008 Yr    3 of   14 Time   8:51:34
  Original Simulation       10  17  2008 Yr    3 of   14 Time   8:51:34
  Original Simulation       10  18  2008 Yr    3 of   14 Time   8:51:34
  Original Simulation       10  19  2008 Yr    3 of   14 Time   8:51:34
  Original Simulation       10  20  2008 Yr    3 of   14 Time   8:51:34
  Original Simulation       10  21  2008 Yr    3 of   14 Time   8:51:34
  Original Simulation       10  22  2008 Yr    3 of   14 Time   8:51:35
  Original Simulation       10  23  2008 Yr    3 of   14 Time   8:51:35
  Original Simulation       10  24  2008 Yr    3 of   14 Time   8:51:35
  Original Simulation       10  25  2008 Yr    3 of   14 Time   8:51:35
  Original Simulation       10  26  2008 Yr    3 of   14 Time   8:51:35
  Original Simulation       10  27  2008 Yr    3 of   14 Time   8:51:35
  Original Simulation       10  28  2008 Yr    3 of   14 Time   8:51:36
  Original Simulation       10  29  2008 Yr    3 of   14 Time   8:51:36
  Original Simulation       10  30  2008 Yr    3 of   14 Time   8:51:36
  Original Simulation       10  31  2008 Yr    3 of   14 Time   8:51:36
  Original Simulation       11   1  2008 Yr    3 of   14 Time   8:51:36
  Original Simulation       11   2  2008 Yr    3 of   14 Time   8:51:37
  Original Simulation       11   3  2008 Yr    3 of   14 Time   8:51:37
  Original Simulation       11   4  2008 Yr    3 of   14 Time   8:51:37
  Original Simulation       11   5  2008 Yr    3 of   14 Time   8:51:37
  Original Simulation       11   6  2008 Yr    3 of   14 Time   8:51:37
  Original Simulation       11   7  2008 Yr    3 of   14 Time   8:51:37
  Original Simulation       11   8  2008 Yr    3 of   14 Time   8:51:38
  Original Simulation       11   9  2008 Yr    3 of   14 Time   8:51:38
  Original Simulation       11  10  2008 Yr    3 of   14 Time   8:51:38
  Original Simulation       11  11  2008 Yr    3 of   14 Time   8:51:38
  Original Simulation       11  12  2008 Yr    3 of   14 Time   8:51:38
  Original Simulation       11  13  2008 Yr    3 of   14 Time   8:51:38
  Original Simulation       11  14  2008 Yr    3 of   14 Time   8:51:39
  Original Simulation       11  15  2008 Yr    3 of   14 Time   8:51:39
  Original Simulation       11  16  2008 Yr    3 of   14 Time   8:51:39
  Original Simulation       11  17  2008 Yr    3 of   14 Time   8:51:39
  Original Simulation       11  18  2008 Yr    3 of   14 Time   8:51:39
  Original Simulation       11  19  2008 Yr    3 of   14 Time   8:51:40
  Original Simulation       11  20  2008 Yr    3 of   14 Time   8:51:40
  Original Simulation       11  21  2008 Yr    3 of   14 Time   8:51:40
  Original Simulation       11  22  2008 Yr    3 of   14 Time   8:51:40
  Original Simulation       11  23  2008 Yr    3 of   14 Time   8:51:40
  Original Simulation       11  24  2008 Yr    3 of   14 Time   8:51:40
  Original Simulation       11  25  2008 Yr    3 of   14 Time   8:51:41
  Original Simulation       11  26  2008 Yr    3 of   14 Time   8:51:41
  Original Simulation       11  27  2008 Yr    3 of   14 Time   8:51:41
  Original Simulation       11  28  2008 Yr    3 of   14 Time   8:51:41
  Original Simulation       11  29  2008 Yr    3 of   14 Time   8:51:41
  Original Simulation       11  30  2008 Yr    3 of   14 Time   8:51:42
  Original Simulation       12   1  2008 Yr    3 of   14 Time   8:51:42
  Original Simulation       12   2  2008 Yr    3 of   14 Time   8:51:42
  Original Simulation       12   3  2008 Yr    3 of   14 Time   8:51:42
  Original Simulation       12   4  2008 Yr    3 of   14 Time   8:51:42
  Original Simulation       12   5  2008 Yr    3 of   14 Time   8:51:43
  Original Simulation       12   6  2008 Yr    3 of   14 Time   8:51:43
  Original Simulation       12   7  2008 Yr    3 of   14 Time   8:51:43
  Original Simulation       12   8  2008 Yr    3 of   14 Time   8:51:43
  Original Simulation       12   9  2008 Yr    3 of   14 Time   8:51:43
  Original Simulation       12  10  2008 Yr    3 of   14 Time   8:51:43
  Original Simulation       12  11  2008 Yr    3 of   14 Time   8:51:44
  Original Simulation       12  12  2008 Yr    3 of   14 Time   8:51:44
  Original Simulation       12  13  2008 Yr    3 of   14 Time   8:51:44
  Original Simulation       12  14  2008 Yr    3 of   14 Time   8:51:44
  Original Simulation       12  15  2008 Yr    3 of   14 Time   8:51:44
  Original Simulation       12  16  2008 Yr    3 of   14 Time   8:51:45
  Original Simulation       12  17  2008 Yr    3 of   14 Time   8:51:45
  Original Simulation       12  18  2008 Yr    3 of   14 Time   8:51:45
  Original Simulation       12  19  2008 Yr    3 of   14 Time   8:51:45
  Original Simulation       12  20  2008 Yr    3 of   14 Time   8:51:45
  Original Simulation       12  21  2008 Yr    3 of   14 Time   8:51:45
  Original Simulation       12  22  2008 Yr    3 of   14 Time   8:51:46
  Original Simulation       12  23  2008 Yr    3 of   14 Time   8:51:46
  Original Simulation       12  24  2008 Yr    3 of   14 Time   8:51:46
  Original Simulation       12  25  2008 Yr    3 of   14 Time   8:51:46
  Original Simulation       12  26  2008 Yr    3 of   14 Time   8:51:46
  Original Simulation       12  27  2008 Yr    3 of   14 Time   8:51:46
  Original Simulation       12  28  2008 Yr    3 of   14 Time   8:51:47
  Original Simulation       12  29  2008 Yr    3 of   14 Time   8:51:47
  Original Simulation       12  30  2008 Yr    3 of   14 Time   8:51:47
  Original Simulation       12  31  2008 Yr    3 of   14 Time   8:51:47
  Original Simulation        1   1  2009 Yr    4 of   14 Time   8:51:47
  Original Simulation        1   2  2009 Yr    4 of   14 Time   8:51:48
  Original Simulation        1   3  2009 Yr    4 of   14 Time   8:51:48
  Original Simulation        1   4  2009 Yr    4 of   14 Time   8:51:48
  Original Simulation        1   5  2009 Yr    4 of   14 Time   8:51:48
[...]
  Original Simulation        3  31  2019 Yr   14 of   14 Time   9:19:32
  Original Simulation        4   1  2019 Yr   14 of   14 Time   9:19:33
  Original Simulation        4   2  2019 Yr   14 of   14 Time   9:19:33
  Original Simulation        4   3  2019 Yr   14 of   14 Time   9:19:34
  Original Simulation        4   4  2019 Yr   14 of   14 Time   9:19:34
  Original Simulation        4   5  2019 Yr   14 of   14 Time   9:19:35
  Original Simulation        4   6  2019 Yr   14 of   14 Time   9:19:35
  Original Simulation        4   7  2019 Yr   14 of   14 Time   9:19:35
  Original Simulation        4   8  2019 Yr   14 of   14 Time   9:19:36
  Original Simulation        4   9  2019 Yr   14 of   14 Time   9:19:36
  Original Simulation        4  10  2019 Yr   14 of   14 Time   9:19:37
  Original Simulation        4  11  2019 Yr   14 of   14 Time   9:19:37
  Original Simulation        4  12  2019 Yr   14 of   14 Time   9:19:38
  Original Simulation        4  13  2019 Yr   14 of   14 Time   9:19:38
  Original Simulation        4  14  2019 Yr   14 of   14 Time   9:19:39
  Original Simulation        4  15  2019 Yr   14 of   14 Time   9:19:39
  Original Simulation        4  16  2019 Yr   14 of   14 Time   9:19:40
  Original Simulation        4  17  2019 Yr   14 of   14 Time   9:19:40
  Original Simulation        4  18  2019 Yr   14 of   14 Time   9:19:40
  Original Simulation        4  19  2019 Yr   14 of   14 Time   9:19:41
  Original Simulation        4  20  2019 Yr   14 of   14 Time   9:19:41
  Original Simulation        4  21  2019 Yr   14 of   14 Time   9:19:41
  Original Simulation        4  22  2019 Yr   14 of   14 Time   9:19:42
  Original Simulation        4  23  2019 Yr   14 of   14 Time   9:19:42
  Original Simulation        4  24  2019 Yr   14 of   14 Time   9:19:43
  Original Simulation        4  25  2019 Yr   14 of   14 Time   9:19:43
  Original Simulation        4  26  2019 Yr   14 of   14 Time   9:19:43
  Original Simulation        4  27  2019 Yr   14 of   14 Time   9:19:44
  Original Simulation        4  28  2019 Yr   14 of   14 Time   9:19:44
  Original Simulation        4  29  2019 Yr   14 of   14 Time   9:19:44
  Original Simulation        4  30  2019 Yr   14 of   14 Time   9:19:45
  Original Simulation        5   1  2019 Yr   14 of   14 Time   9:19:45
  Original Simulation        5   2  2019 Yr   14 of   14 Time   9:19:45
  Original Simulation        5   3  2019 Yr   14 of   14 Time   9:19:46
  Original Simulation        5   4  2019 Yr   14 of   14 Time   9:19:46
  Original Simulation        5   5  2019 Yr   14 of   14 Time   9:19:47
  Original Simulation        5   6  2019 Yr   14 of   14 Time   9:19:47
  Original Simulation        5   7  2019 Yr   14 of   14 Time   9:19:47
  Original Simulation        5   8  2019 Yr   14 of   14 Time   9:19:48
  Original Simulation        5   9  2019 Yr   14 of   14 Time   9:19:48
  Original Simulation        5  10  2019 Yr   14 of   14 Time   9:19:49
  Original Simulation        5  11  2019 Yr   14 of   14 Time   9:19:49
  Original Simulation        5  12  2019 Yr   14 of   14 Time   9:19:50
  Original Simulation        5  13  2019 Yr   14 of   14 Time   9:19:50
  Original Simulation        5  14  2019 Yr   14 of   14 Time   9:19:51
  Original Simulation        5  15  2019 Yr   14 of   14 Time   9:19:51
  Original Simulation        5  16  2019 Yr   14 of   14 Time   9:19:52
  Original Simulation        5  17  2019 Yr   14 of   14 Time   9:19:52
  Original Simulation        5  18  2019 Yr   14 of   14 Time   9:19:53
  Original Simulation        5  19  2019 Yr   14 of   14 Time   9:19:53
  Original Simulation        5  20  2019 Yr   14 of   14 Time   9:19:53
  Original Simulation        5  21  2019 Yr   14 of   14 Time   9:19:54
  Original Simulation        5  22  2019 Yr   14 of   14 Time   9:19:54
  Original Simulation        5  23  2019 Yr   14 of   14 Time   9:19:55
  Original Simulation        5  24  2019 Yr   14 of   14 Time   9:19:55
  Original Simulation        5  25  2019 Yr   14 of   14 Time   9:19:56
  Original Simulation        5  26  2019 Yr   14 of   14 Time   9:19:57
  Original Simulation        5  27  2019 Yr   14 of   14 Time   9:19:57
  Original Simulation        5  28  2019 Yr   14 of   14 Time   9:19:58
  Original Simulation        5  29  2019 Yr   14 of   14 Time   9:19:59
  Original Simulation        5  30  2019 Yr   14 of   14 Time   9:19:59
  Original Simulation        5  31  2019 Yr   14 of   14 Time   9:20: 0
  Original Simulation        6   1  2019 Yr   14 of   14 Time   9:20: 1
  Original Simulation        6   2  2019 Yr   14 of   14 Time   9:20: 1
  Original Simulation        6   3  2019 Yr   14 of   14 Time   9:20: 1
  Original Simulation        6   4  2019 Yr   14 of   14 Time   9:20: 2
  Original Simulation        6   5  2019 Yr   14 of   14 Time   9:20: 2
  Original Simulation        6   6  2019 Yr   14 of   14 Time   9:20: 2
  Original Simulation        6   7  2019 Yr   14 of   14 Time   9:20: 3
  Original Simulation        6   8  2019 Yr   14 of   14 Time   9:20: 3
  Original Simulation        6   9  2019 Yr   14 of   14 Time   9:20: 4
  Original Simulation        6  10  2019 Yr   14 of   14 Time   9:20: 4
  Original Simulation        6  11  2019 Yr   14 of   14 Time   9:20: 5
  Original Simulation        6  12  2019 Yr   14 of   14 Time   9:20: 5
  Original Simulation        6  13  2019 Yr   14 of   14 Time   9:20: 6
  Original Simulation        6  14  2019 Yr   14 of   14 Time   9:20: 6
  Original Simulation        6  15  2019 Yr   14 of   14 Time   9:20: 7
  Original Simulation        6  16  2019 Yr   14 of   14 Time   9:20: 7
  Original Simulation        6  17  2019 Yr   14 of   14 Time   9:20: 7
  Original Simulation        6  18  2019 Yr   14 of   14 Time   9:20: 8
  Original Simulation        6  19  2019 Yr   14 of   14 Time   9:20: 8
  Original Simulation        6  20  2019 Yr   14 of   14 Time   9:20: 8
  Original Simulation        6  21  2019 Yr   14 of   14 Time   9:20: 9
  Original Simulation        6  22  2019 Yr   14 of   14 Time   9:20: 9
  Original Simulation        6  23  2019 Yr   14 of   14 Time   9:20:10
  Original Simulation        6  24  2019 Yr   14 of   14 Time   9:20:10
  Original Simulation        6  25  2019 Yr   14 of   14 Time   9:20:11
  Original Simulation        6  26  2019 Yr   14 of   14 Time   9:20:11
  Original Simulation        6  27  2019 Yr   14 of   14 Time   9:20:12
  Original Simulation        6  28  2019 Yr   14 of   14 Time   9:20:12
  Original Simulation        6  29  2019 Yr   14 of   14 Time   9:20:13
  Original Simulation        6  30  2019 Yr   14 of   14 Time   9:20:13
  Original Simulation        7   1  2019 Yr   14 of   14 Time   9:20:14
  Original Simulation        7   2  2019 Yr   14 of   14 Time   9:20:14
  Original Simulation        7   3  2019 Yr   14 of   14 Time   9:20:15
  Original Simulation        7   4  2019 Yr   14 of   14 Time   9:20:15
  Original Simulation        7   5  2019 Yr   14 of   14 Time   9:20:16
  Original Simulation        7   6  2019 Yr   14 of   14 Time   9:20:17
  Original Simulation        7   7  2019 Yr   14 of   14 Time   9:20:17
  Original Simulation        7   8  2019 Yr   14 of   14 Time   9:20:18
  Original Simulation        7   9  2019 Yr   14 of   14 Time   9:20:19
  Original Simulation        7  10  2019 Yr   14 of   14 Time   9:20:19
  Original Simulation        7  11  2019 Yr   14 of   14 Time   9:20:20
  Original Simulation        7  12  2019 Yr   14 of   14 Time   9:20:20
  Original Simulation        7  13  2019 Yr   14 of   14 Time   9:20:21
  Original Simulation        7  14  2019 Yr   14 of   14 Time   9:20:21
  Original Simulation        7  15  2019 Yr   14 of   14 Time   9:20:22
  Original Simulation        7  16  2019 Yr   14 of   14 Time   9:20:23
  Original Simulation        7  17  2019 Yr   14 of   14 Time   9:20:23
  Original Simulation        7  18  2019 Yr   14 of   14 Time   9:20:24
  Original Simulation        7  19  2019 Yr   14 of   14 Time   9:20:24
  Original Simulation        7  20  2019 Yr   14 of   14 Time   9:20:25
  Original Simulation        7  21  2019 Yr   14 of   14 Time   9:20:25
  Original Simulation        7  22  2019 Yr   14 of   14 Time   9:20:26
  Original Simulation        7  23  2019 Yr   14 of   14 Time   9:20:26
  Original Simulation        7  24  2019 Yr   14 of   14 Time   9:20:27
  Original Simulation        7  25  2019 Yr   14 of   14 Time   9:20:27
  Original Simulation        7  26  2019 Yr   14 of   14 Time   9:20:28
  Original Simulation        7  27  2019 Yr   14 of   14 Time   9:20:28
  Original Simulation        7  28  2019 Yr   14 of   14 Time   9:20:29
  Original Simulation        7  29  2019 Yr   14 of   14 Time   9:20:29
  Original Simulation        7  30  2019 Yr   14 of   14 Time   9:20:29
  Original Simulation        7  31  2019 Yr   14 of   14 Time   9:20:30
  Original Simulation        8   1  2019 Yr   14 of   14 Time   9:20:30
  Original Simulation        8   2  2019 Yr   14 of   14 Time   9:20:31
  Original Simulation        8   3  2019 Yr   14 of   14 Time   9:20:31
  Original Simulation        8   4  2019 Yr   14 of   14 Time   9:20:31
  Original Simulation        8   5  2019 Yr   14 of   14 Time   9:20:32
  Original Simulation        8   6  2019 Yr   14 of   14 Time   9:20:32
  Original Simulation        8   7  2019 Yr   14 of   14 Time   9:20:33
  Original Simulation        8   8  2019 Yr   14 of   14 Time   9:20:33
  Original Simulation        8   9  2019 Yr   14 of   14 Time   9:20:33
  Original Simulation        8  10  2019 Yr   14 of   14 Time   9:20:34
  Original Simulation        8  11  2019 Yr   14 of   14 Time   9:20:34
  Original Simulation        8  12  2019 Yr   14 of   14 Time   9:20:34
  Original Simulation        8  13  2019 Yr   14 of   14 Time   9:20:35
  Original Simulation        8  14  2019 Yr   14 of   14 Time   9:20:35
  Original Simulation        8  15  2019 Yr   14 of   14 Time   9:20:36
  Original Simulation        8  16  2019 Yr   14 of   14 Time   9:20:36
  Original Simulation        8  17  2019 Yr   14 of   14 Time   9:20:37
  Original Simulation        8  18  2019 Yr   14 of   14 Time   9:20:37
  Original Simulation        8  19  2019 Yr   14 of   14 Time   9:20:38
  Original Simulation        8  20  2019 Yr   14 of   14 Time   9:20:38
  Original Simulation        8  21  2019 Yr   14 of   14 Time   9:20:38
  Original Simulation        8  22  2019 Yr   14 of   14 Time   9:20:39
  Original Simulation        8  23  2019 Yr   14 of   14 Time   9:20:39
  Original Simulation        8  24  2019 Yr   14 of   14 Time   9:20:39
  Original Simulation        8  25  2019 Yr   14 of   14 Time   9:20:40
  Original Simulation        8  26  2019 Yr   14 of   14 Time   9:20:40
  Original Simulation        8  27  2019 Yr   14 of   14 Time   9:20:40
  Original Simulation        8  28  2019 Yr   14 of   14 Time   9:20:40
  Original Simulation        8  29  2019 Yr   14 of   14 Time   9:20:41
  Original Simulation        8  30  2019 Yr   14 of   14 Time   9:20:41
  Original Simulation        8  31  2019 Yr   14 of   14 Time   9:20:41
  Original Simulation        9   1  2019 Yr   14 of   14 Time   9:20:42
  Original Simulation        9   2  2019 Yr   14 of   14 Time   9:20:42
  Original Simulation        9   3  2019 Yr   14 of   14 Time   9:20:43
  Original Simulation        9   4  2019 Yr   14 of   14 Time   9:20:43
  Original Simulation        9   5  2019 Yr   14 of   14 Time   9:20:43
  Original Simulation        9   6  2019 Yr   14 of   14 Time   9:20:43
  Original Simulation        9   7  2019 Yr   14 of   14 Time   9:20:44
  Original Simulation        9   8  2019 Yr   14 of   14 Time   9:20:44
  Original Simulation        9   9  2019 Yr   14 of   14 Time   9:20:45
  Original Simulation        9  10  2019 Yr   14 of   14 Time   9:20:45
  Original Simulation        9  11  2019 Yr   14 of   14 Time   9:20:45
  Original Simulation        9  12  2019 Yr   14 of   14 Time   9:20:46
  Original Simulation        9  13  2019 Yr   14 of   14 Time   9:20:46
  Original Simulation        9  14  2019 Yr   14 of   14 Time   9:20:46
  Original Simulation        9  15  2019 Yr   14 of   14 Time   9:20:47
  Original Simulation        9  16  2019 Yr   14 of   14 Time   9:20:47
  Original Simulation        9  17  2019 Yr   14 of   14 Time   9:20:48
  Original Simulation        9  18  2019 Yr   14 of   14 Time   9:20:49
  Original Simulation        9  19  2019 Yr   14 of   14 Time   9:20:50
  Original Simulation        9  20  2019 Yr   14 of   14 Time   9:20:50
  Original Simulation        9  21  2019 Yr   14 of   14 Time   9:20:51
  Original Simulation        9  22  2019 Yr   14 of   14 Time   9:20:51
  Original Simulation        9  23  2019 Yr   14 of   14 Time   9:20:52
  Original Simulation        9  24  2019 Yr   14 of   14 Time   9:20:52
  Original Simulation        9  25  2019 Yr   14 of   14 Time   9:20:53
  Original Simulation        9  26  2019 Yr   14 of   14 Time   9:20:53
  Original Simulation        9  27  2019 Yr   14 of   14 Time   9:20:53
  Original Simulation        9  28  2019 Yr   14 of   14 Time   9:20:54
  Original Simulation        9  29  2019 Yr   14 of   14 Time   9:20:55
  Original Simulation        9  30  2019 Yr   14 of   14 Time   9:20:55
  Original Simulation       10   1  2019 Yr   14 of   14 Time   9:20:56
  Original Simulation       10   2  2019 Yr   14 of   14 Time   9:20:57
  Original Simulation       10   3  2019 Yr   14 of   14 Time   9:20:57
  Original Simulation       10   4  2019 Yr   14 of   14 Time   9:20:58
  Original Simulation       10   5  2019 Yr   14 of   14 Time   9:20:58
  Original Simulation       10   6  2019 Yr   14 of   14 Time   9:20:58
  Original Simulation       10   7  2019 Yr   14 of   14 Time   9:20:59
  Original Simulation       10   8  2019 Yr   14 of   14 Time   9:20:59
  Original Simulation       10   9  2019 Yr   14 of   14 Time   9:21: 0
  Original Simulation       10  10  2019 Yr   14 of   14 Time   9:21: 1
  Original Simulation       10  11  2019 Yr   14 of   14 Time   9:21: 2
  Original Simulation       10  12  2019 Yr   14 of   14 Time   9:21: 3
  Original Simulation       10  13  2019 Yr   14 of   14 Time   9:21: 4
  Original Simulation       10  14  2019 Yr   14 of   14 Time   9:21: 5
  Original Simulation       10  15  2019 Yr   14 of   14 Time   9:21: 6
  Original Simulation       10  16  2019 Yr   14 of   14 Time   9:21: 6
  Original Simulation       10  17  2019 Yr   14 of   14 Time   9:21: 7
  Original Simulation       10  18  2019 Yr   14 of   14 Time   9:21: 8
  Original Simulation       10  19  2019 Yr   14 of   14 Time   9:21: 8
  Original Simulation       10  20  2019 Yr   14 of   14 Time   9:21: 9
  Original Simulation       10  21  2019 Yr   14 of   14 Time   9:21: 9
  Original Simulation       10  22  2019 Yr   14 of   14 Time   9:21:10
  Original Simulation       10  23  2019 Yr   14 of   14 Time   9:21:10
  Original Simulation       10  24  2019 Yr   14 of   14 Time   9:21:11
  Original Simulation       10  25  2019 Yr   14 of   14 Time   9:21:11
  Original Simulation       10  26  2019 Yr   14 of   14 Time   9:21:12
  Original Simulation       10  27  2019 Yr   14 of   14 Time   9:21:12
  Original Simulation       10  28  2019 Yr   14 of   14 Time   9:21:13
  Original Simulation       10  29  2019 Yr   14 of   14 Time   9:21:14
  Original Simulation       10  30  2019 Yr   14 of   14 Time   9:21:14
  Original Simulation       10  31  2019 Yr   14 of   14 Time   9:21:15
  Original Simulation       11   1  2019 Yr   14 of   14 Time   9:21:15
  Original Simulation       11   2  2019 Yr   14 of   14 Time   9:21:16
  Original Simulation       11   3  2019 Yr   14 of   14 Time   9:21:17
  Original Simulation       11   4  2019 Yr   14 of   14 Time   9:21:17
  Original Simulation       11   5  2019 Yr   14 of   14 Time   9:21:18
  Original Simulation       11   6  2019 Yr   14 of   14 Time   9:21:19
  Original Simulation       11   7  2019 Yr   14 of   14 Time   9:21:19
  Original Simulation       11   8  2019 Yr   14 of   14 Time   9:21:20
  Original Simulation       11   9  2019 Yr   14 of   14 Time   9:21:21
  Original Simulation       11  10  2019 Yr   14 of   14 Time   9:21:21
  Original Simulation       11  11  2019 Yr   14 of   14 Time   9:21:22
  Original Simulation       11  12  2019 Yr   14 of   14 Time   9:21:23
  Original Simulation       11  13  2019 Yr   14 of   14 Time   9:21:23
  Original Simulation       11  14  2019 Yr   14 of   14 Time   9:21:24
  Original Simulation       11  15  2019 Yr   14 of   14 Time   9:21:24
  Original Simulation       11  16  2019 Yr   14 of   14 Time   9:21:25
  Original Simulation       11  17  2019 Yr   14 of   14 Time   9:21:26
  Original Simulation       11  18  2019 Yr   14 of   14 Time   9:21:26
  Original Simulation       11  19  2019 Yr   14 of   14 Time   9:21:26
  Original Simulation       11  20  2019 Yr   14 of   14 Time   9:21:27
  Original Simulation       11  21  2019 Yr   14 of   14 Time   9:21:27
  Original Simulation       11  22  2019 Yr   14 of   14 Time   9:21:27
  Original Simulation       11  23  2019 Yr   14 of   14 Time   9:21:28
  Original Simulation       11  24  2019 Yr   14 of   14 Time   9:21:28
  Original Simulation       11  25  2019 Yr   14 of   14 Time   9:21:29
  Original Simulation       11  26  2019 Yr   14 of   14 Time   9:21:29
  Original Simulation       11  27  2019 Yr   14 of   14 Time   9:21:30
  Original Simulation       11  28  2019 Yr   14 of   14 Time   9:21:30
  Original Simulation       11  29  2019 Yr   14 of   14 Time   9:21:30
  Original Simulation       11  30  2019 Yr   14 of   14 Time   9:21:31
  Original Simulation       12   1  2019 Yr   14 of   14 Time   9:21:31
  Original Simulation       12   2  2019 Yr   14 of   14 Time   9:21:31
  Original Simulation       12   3  2019 Yr   14 of   14 Time   9:21:32
  Original Simulation       12   4  2019 Yr   14 of   14 Time   9:21:32
  Original Simulation       12   5  2019 Yr   14 of   14 Time   9:21:32
  Original Simulation       12   6  2019 Yr   14 of   14 Time   9:21:33
  Original Simulation       12   7  2019 Yr   14 of   14 Time   9:21:33
  Original Simulation       12   8  2019 Yr   14 of   14 Time   9:21:33
  Original Simulation       12   9  2019 Yr   14 of   14 Time   9:21:34
  Original Simulation       12  10  2019 Yr   14 of   14 Time   9:21:34
  Original Simulation       12  11  2019 Yr   14 of   14 Time   9:21:35
  Original Simulation       12  12  2019 Yr   14 of   14 Time   9:21:35
  Original Simulation       12  13  2019 Yr   14 of   14 Time   9:21:35
  Original Simulation       12  14  2019 Yr   14 of   14 Time   9:21:36
  Original Simulation       12  15  2019 Yr   14 of   14 Time   9:21:36
  Original Simulation       12  16  2019 Yr   14 of   14 Time   9:21:36
  Original Simulation       12  17  2019 Yr   14 of   14 Time   9:21:37
  Original Simulation       12  18  2019 Yr   14 of   14 Time   9:21:38
  Original Simulation       12  19  2019 Yr   14 of   14 Time   9:21:38
  Original Simulation       12  20  2019 Yr   14 of   14 Time   9:21:38
  Original Simulation       12  21  2019 Yr   14 of   14 Time   9:21:39
  Original Simulation       12  22  2019 Yr   14 of   14 Time   9:21:40
  Original Simulation       12  23  2019 Yr   14 of   14 Time   9:21:40
  Original Simulation       12  24  2019 Yr   14 of   14 Time   9:21:41
  Original Simulation       12  25  2019 Yr   14 of   14 Time   9:21:41
  Original Simulation       12  26  2019 Yr   14 of   14 Time   9:21:42
  Original Simulation       12  27  2019 Yr   14 of   14 Time   9:21:42
  Original Simulation       12  28  2019 Yr   14 of   14 Time   9:21:43
  Original Simulation       12  29  2019 Yr   14 of   14 Time   9:21:43
  Original Simulation       12  30  2019 Yr   14 of   14 Time   9:21:44
  Original Simulation       12  31  2019 Yr   14 of   14 Time   9:21:45

 Execution successfully completed 

  Date of Sim   2/13/2026 Time   9:21:47
